! UKS B3LYP ma-def2-SVP OPT NumFreq
%basis

end 

%scf
  maxiter 200
end

%pal 
	nprocs 16
end
* xyz 0 1
H	2.6604	-1.3913	-0.4932
H	3.5202	-3.5365	-0.5961
H	2.0663	-5.3795	-0.5896
H	-0.2462	-4.9734	-0.5149
H	-1.0248	-2.7987	-0.4223
H	-7.5970	-1.3030	-1.3347
H	-7.6831	-3.6280	-1.5517
C	-1.2559	-0.4164	2.1607
C	-0.0884	-0.0430	2.8521
C	-0.0531	-0.0380	7.0045
C	1.1170	0.3555	2.2361
C	2.5588	0.9840	0.6487
C	3.1550	1.2505	1.9196
C	2.2950	0.8623	2.8821
H	-2.0851	5.2876	-0.5197
C	3.1031	1.2723	-0.6071
C	4.3799	2.0464	-0.6534
C	5.6028	1.5572	-0.2509
H	-3.4369	3.4384	-1.0316
C	5.5129	4.1654	-1.0888
C	4.3879	3.3656	-1.0808
C	2.4553	0.9699	-1.8132
C	0.8048	0.1757	-3.0845
C	-0.5002	-0.3739	-3.1338
C	-2.2832	-1.0513	-1.9838
C	-2.5277	-1.3104	-3.3692
C	-1.4300	-0.8863	-4.0720
C	-3.0562	-1.2756	-0.8364
C	-4.3846	-1.9186	-1.0205
C	-5.5791	-1.2260	-1.1081
C	-5.6874	-3.9549	-1.3741
C	-4.5024	-3.2912	-1.1748
C	-2.6001	-0.9976	0.4625
C	-3.3148	-1.2165	1.6877
C	-2.5078	-0.8617	2.7145
C	1.8445	0.5688	-3.9635
C	2.8594	1.0676	-3.1871
C	-0.1019	-0.0633	4.3391
C	0.9113	-0.6850	6.2782
C	-1.0575	0.5733	6.2970
C	0.0694	2.8832	-0.1628
C	-0.4162	4.1761	-0.1774
C	-1.7326	4.4064	-0.5004
C	-2.5256	3.3160	-0.7944
C	-1.9873	2.0473	-0.7420
C	2.0611	-2.1285	-0.4985
C	2.5806	-3.4051	-0.5568
C	1.7282	-4.4915	-0.5572
C	0.3687	-4.2495	-0.5096
C	-0.0878	-2.9509	-0.4563
C	-6.8029	-1.8224	-1.2959
C	-6.8464	-3.1960	-1.4256
N	-1.3443	-0.5140	0.7950
N	1.3054	0.4302	0.8823
N	1.2123	0.4218	-1.8087
N	-1.0524	-0.4847	-1.8901
N	0.9031	-0.7135	4.9439
N	-1.1027	0.5798	4.9590
N	-0.6987	1.8125	-0.4360
N	0.7372	-1.8892	-0.4499
F	5.6613	0.2641	0.1565
F	3.2211	3.9147	-1.4913
F	-5.5215	0.1232	-1.0107
F	-3.3558	-4.0175	-1.1286
H	7.5868	1.9287	0.0544
H	7.4822	4.1437	-0.6505
H	1.6124	-1.1294	6.7406
H	-0.0285	-0.0134	7.9536
Co	0.0250	-0.0314	-0.4337
H	4.0123	1.6358	2.0616
H	2.4415	0.9151	3.8182
H	5.4711	5.0675	-1.3818
H	-3.3102	-1.7044	-3.7357
H	-1.3139	-0.9279	-5.0131
H	-5.7125	-4.8990	-1.4733
H	-4.1996	-1.5525	1.7641
H	-2.7284	-0.9000	3.6371
H	1.8400	0.4997	-4.9111
H	3.6851	1.4157	-3.5028
H	-1.7505	1.0111	6.7770
H	0.9851	2.7440	0.0489
H	0.1573	4.9032	0.0338
C	6.7650	2.3054	-0.2372
C	6.6962	3.6117	-0.6574
H	-2.5513	1.3072	-0.9292
*