! UKS B3LYP ma-def2-SVP OPT NumFreq
%basis
NewGTO Ag "ma-def2-TZVP" end
end 

%scf
  maxiter 200
end

%pal 
	nprocs 16
end
* xyz 0 1
C	-0.9275	-2.0344	0.5564
Ag	0.5850	0.3684	-0.2003
C	-4.0421	-1.6609	2.3935
H	-3.2364	-3.3601	-0.2729
C	-0.6977	-3.4257	0.8026
H	3.5715	4.1238	-1.1730
C	-5.1835	-2.3803	2.7519
H	1.7211	-4.6455	-2.1213
C	0.5490	-3.7334	0.3119
H	1.5468	5.2817	-0.2643
C	-5.5591	-3.4573	1.9790
H	3.0101	-6.5342	-2.6781
H	-3.4938	3.0408	0.8948
H	6.2104	-4.8804	-0.8211
C	-4.8438	-3.8482	0.8607
F	-2.7095	8.6239	1.0206
C	1.1173	-2.5494	-0.2514
C	2.3960	-2.4105	-0.8520
H	-4.1931	0.6865	1.1900
C	-3.7251	-3.1150	0.5040
H	4.9294	-2.9897	-0.2785
F	5.4554	-6.9185	-2.1305
C	2.9760	-1.1730	-1.1870
H	-1.2968	-4.0261	1.2285
C	3.1899	-3.6299	-1.1518
F	-6.6617	-4.1654	2.3394
C	2.4456	2.3272	-1.0118
C	4.1676	-0.8101	-1.8976
H	0.9630	-4.5889	0.3413
C	2.6343	-4.6879	-1.8598
C	4.2288	0.5687	-1.9686
C	2.7498	3.7125	-0.9315
H	4.8058	-1.4147	-2.2581
C	3.3913	-5.8120	-2.1931
C	3.0873	1.0837	-1.3113
C	1.6250	4.3511	-0.4355
H	4.9132	1.0792	-2.3857
C	4.7089	-5.8367	-1.7973
C	0.6013	3.3746	-0.2220
C	-1.2830	4.7997	0.4743
C	5.3001	-4.8219	-1.0857
H	-2.0508	4.5084	2.3487
C	-0.7121	3.4436	0.2794
C	4.5362	-3.7061	-0.7649
C	-1.9369	5.1572	1.6625
H	-2.8554	6.6886	2.6605
C	-1.5129	2.3082	0.5661
C	-2.4202	6.4453	1.8511
H	-1.5380	7.7109	-1.0334
N	-1.0876	0.9883	0.6166
C	-2.9245	2.2809	0.8384
H	-0.7009	5.5469	-1.3360
C	-2.2542	7.3579	0.8391
N	0.1801	-1.5516	-0.0973
C	-3.3108	0.9849	1.0028
H	-3.7674	-0.9208	2.9215
C	-1.6300	7.0558	-0.3520
C	-2.0799	-1.2581	0.8878
N	2.3826	0.0078	-0.8389
C	-2.1521	0.1486	0.8454
C	-3.2974	-2.0194	1.2635
C	-1.1411	5.7734	-0.5251
N	1.1489	2.1835	-0.6127
H	-5.6908	-2.1334	3.5149
H	-5.1152	-4.6030	0.3513
*