! UKS B3LYP ma-def2-SVP OPT NumFreq
%basis
NewGTO Au "ma-def2-TZVP" end
end 

%scf
  maxiter 200
end

%pal 
	nprocs 16
end
* xyz 0 1
C	-2.7036	4.6630	1.8989
C	3.3806	-0.8507	-1.1192
H	-4.8038	-1.1763	2.4249
C	0.9429	2.1028	-0.5742
H	2.1654	-4.3801	-2.4743
F	3.1127	-8.4549	-1.1743
H	5.1835	4.6694	-0.3064
C	2.1085	1.3672	-0.9117
C	3.0296	-2.1518	-0.9703
C	3.3104	2.1546	-1.3008
F	-5.6226	6.7693	2.2011
H	3.1196	-6.4960	-2.8039
H	5.5407	2.4718	-3.6960
C	1.6375	-2.2273	-0.6138
C	3.7751	3.1984	-0.4886
H	1.8481	-7.6536	0.8620
H	3.6934	1.1827	-3.0448
F	6.5624	4.4323	-2.4308
C	0.8592	-3.3889	-0.3398
H	0.9527	-5.5137	1.2314
C	4.8703	3.9649	-0.8597
H	-4.7513	1.3202	2.3031
Au	-0.5136	-0.3457	0.1918
C	-0.4522	-3.3530	0.1716
C	1.4651	-4.7214	-0.5803
C	0.6919	3.5086	-0.7485
C	-3.5005	5.7391	2.2468
H	4.2461	-0.5328	-1.3467
C	5.4869	3.6766	-2.0495
C	-2.9638	-1.1379	1.3593
C	-1.4390	-4.3586	0.4553
H	-0.9745	4.6275	-0.2583
C	2.1110	-5.0344	-1.7883
H	3.6093	-2.8957	-1.0836
C	5.0847	2.6529	-2.8827
C	-4.1279	-0.6489	2.0151
C	-2.5670	-3.7493	0.9905
H	-1.3360	-5.2906	0.3006
H	1.2869	4.1394	-1.1354
C	2.6713	-6.2910	-1.9923
C	3.9884	1.8948	-2.4897
H	-3.3599	-4.1868	1.2764
C	-2.3133	-2.3524	1.0334
C	2.5633	-7.2240	-1.0022
C	1.9206	-6.9766	0.1977
C	1.3823	-5.7098	0.4076
C	-4.0962	0.7330	1.9461
N	-2.2780	-0.0301	0.9342
C	-2.9137	1.1291	1.2495
C	-3.2134	3.5871	1.1760
H	-4.9173	2.8981	0.2674
C	-2.3810	2.3899	0.8700
N	1.1995	-0.9095	-0.5733
C	-4.5606	3.6180	0.7746
H	-6.2876	4.7152	0.8561
N	-1.0466	-2.1791	0.5288
C	-1.1267	2.5670	0.2511
C	-5.3734	4.6937	1.1156
H	-3.1498	6.4645	2.7500
N	-0.1826	1.5684	0.0010
C	-0.5548	3.7750	-0.2592
H	-1.7900	4.6574	2.1584
C	-4.8210	5.7301	1.8405
C	2.2297	-0.0389	-0.8760
H	3.3319	3.3843	0.3307
*