! UKS B3LYP ma-def2-SVP OPT NumFreq
%basis

end 

%scf
  maxiter 200
end

%pal 
	nprocs 16
end
* xyz 0 1
Fe	-0.2720	-0.6321	-0.4364
C	2.8019	-2.0935	-0.5759
C	2.5289	-1.1231	0.4242
C	3.3439	-0.8533	1.5724
C	2.7070	0.0807	2.3281
C	1.4911	0.4228	1.6545
C	-4.2377	1.9518	-1.6688
H	-1.4926	3.3571	2.3879
H	-3.3098	3.2485	0.6102
C	-5.3103	1.8834	-0.7847
H	-3.7837	0.1643	-3.9337
C	-6.5243	2.5035	-1.0816
H	-2.2176	-1.6276	-4.7976
C	-6.6884	3.2322	-2.2550
C	-5.6119	3.3083	-3.1282
C	-4.4065	2.6762	-2.8483
C	-7.9954	3.9110	-2.5797
C	4.1050	-2.8135	-0.5619
C	4.1638	-4.2004	-0.6657
C	2.0232	-3.1491	-2.7954
H	-5.2270	1.3697	0.0659
C	5.3861	-4.8661	-0.6845
N	-1.0230	-1.7500	0.5081
H	-7.2389	2.4123	-0.4894
C	6.5233	-2.7831	-0.5272
H	-5.6886	3.8024	-3.9399
C	5.3101	-2.1109	-0.5025
H	-3.7107	2.7381	-3.5024
N	-1.0314	1.0218	0.1848
C	6.5829	-4.1732	-0.6077
N	-1.3455	-0.4396	-1.9905
C	7.9123	-4.8834	-0.5870
O	-1.5687	-2.5690	1.1267
C	1.7973	2.8293	3.6898
H	0.7427	-3.2892	-4.4446
C	0.8656	3.3810	5.8513
H	2.7423	-3.7019	-2.9957
C	-0.2236	2.5828	5.5532
H	4.1700	-1.2910	1.7738
C	-0.3145	1.9193	4.3389
H	2.9906	0.4358	3.1791
C	0.9393	4.1076	7.1659
H	-8.6896	3.5418	-2.0262
H	3.3345	-4.7010	-0.7241
H	5.3644	-5.7761	-0.7435
H	7.3157	-2.2575	-0.4866
H	-8.2399	3.7915	-3.5049
C	0.0881	-2.0175	-2.8480
H	5.3337	-1.1281	-0.4710
H	2.4600	2.9227	3.0512
H	-7.9321	4.8667	-2.4289
H	-0.9109	2.4666	6.1485
H	-1.0488	1.3915	4.2193
N	0.6971	-1.6967	-1.6724
N	1.3993	-0.3226	0.4856
C	0.5287	1.3542	2.0705
C	-0.6350	1.6760	1.3465
C	-1.5748	2.7175	1.6374
C	-2.5395	2.6762	0.6708
C	1.8720	3.4907	4.9013
C	-2.2162	1.6108	-0.2195
C	-2.9555	1.2470	-1.3813
C	-2.5071	0.2657	-2.2470
H	7.8817	-5.7870	-0.9249
C	-3.0151	-0.1984	-3.5133
H	0.1500	4.6060	7.2996
C	-2.1601	-1.1519	-3.9839
C	-1.1158	-1.2942	-3.0227
H	8.6032	-4.3969	-1.0434
H	1.0620	3.5092	7.9041
H	1.6686	4.7038	7.1850
C	0.6909	2.0398	3.3823
H	8.1926	-5.0051	0.3576
C	0.9152	-2.9297	-3.5645
H	2.6053	4.0739	5.0342
C	1.8990	-2.3607	-1.5984
*