! UKS B3LYP ma-def2-SVP OPT NumFreq
%basis
NewGTO Ag "ma-def2-TZVP" end
end 

%scf
  maxiter 200
end

%pal 
	nprocs 16
end
* xyz 0 1
H	1.9340	-5.4408	0.4057
Ag	-0.1532	0.0010	-0.6735
H	-2.4660	-0.4896	-5.7066
H	0.3560	-5.5360	0.6593
H	-2.2382	-2.0391	-6.0436
H	1.3616	-5.4359	1.9013
H	-0.1136	-0.1125	-6.2043
H	-0.9564	-0.5725	-7.4840
H	-0.0308	-1.6267	-6.7137
H	-1.1034	-3.8669	-5.4214
H	-0.6894	-4.6721	-4.1031
H	1.1847	-3.0677	-5.5689
H	1.0628	-4.6514	-5.7643
H	1.5553	-4.0535	-4.3632
H	2.4430	-4.1438	3.1292
H	0.3919	3.7638	7.1845
H	1.7789	3.6101	7.9667
H	1.1998	4.9559	2.8638
H	-0.3130	5.0425	2.3490
H	0.8936	5.3207	1.3358
H	-2.6104	4.9876	-2.1632
H	-3.4151	4.4385	-3.4318
H	-0.7391	5.4598	-3.5021
H	-2.0172	6.1601	-4.1644
H	-1.4469	4.7948	-4.7747
H	-3.7860	2.6816	-4.7225
H	-3.5288	1.1125	-4.8692
H	-2.0755	3.1842	-6.1806
H	-2.9036	2.0044	-6.8785
H	-1.5192	1.6835	-6.1435
C	-1.3197	-0.5022	-3.2148
C	-1.3474	-1.4621	-4.2850
C	-0.7826	-2.6412	-3.8033
C	-0.4233	-2.4213	-2.4221
C	0.1672	-3.2073	-1.4241
C	0.6354	-2.8240	-0.1568
C	1.0982	-3.6469	0.9381
C	1.4454	-2.8032	1.9722
C	1.1977	-1.4428	1.5316
C	1.3682	-0.2239	2.1989
H	2.7256	-2.6321	3.5414
C	1.0168	1.0843	1.8327
C	1.2389	2.3494	2.5051
C	1.1962	-5.1451	0.9799
C	0.6394	3.3337	1.7515
C	0.0377	2.7008	0.5946
C	-0.6857	3.2712	-0.4714
C	-1.2142	2.6584	-1.6120
H	2.4939	3.4563	3.6791
C	-2.0072	3.1118	-2.7420
H	2.6361	1.8824	3.9217
C	-2.2335	2.0149	-3.5695
C	-1.5627	0.8856	-2.9785
C	-1.8000	-1.2219	-5.6954
C	-0.6178	-0.8496	-6.6071
C	-0.4985	-3.8615	-4.6380
C	0.9578	-3.9132	-5.1279
C	2.0114	-3.2664	3.2806
C	1.0707	-3.4125	4.4578
C	1.9836	2.6130	3.7775
C	1.0963	2.7211	5.0002
C	1.1712	3.1867	7.3241
C	0.6013	4.7890	2.1054
O	1.3880	-5.0748	-2.0494
C	-2.5167	4.5010	-3.0205
O	-0.7318	-5.3267	-1.6599
C	-1.5976	5.3009	-3.9495
C	-3.0799	1.9927	-4.8120
C	-2.3271	2.2384	-6.1216
N	-0.7894	-1.1415	-2.1220
N	0.7329	-1.5076	0.2430
N	0.2891	1.3487	0.7000
N	-0.9929	1.3366	-1.8159
N	0.2874	-4.6446	-1.7410
N	1.9147	-0.3395	3.5714
N	-0.8641	4.7353	-0.4155
O	-0.2188	-3.4620	4.0935
O	1.1080	-0.3852	4.4918
O	-0.0949	2.6148	5.0263
O	1.8601	2.9900	6.0660
O	-0.1118	5.4157	-1.1096
O	-1.7512	5.1899	0.2939
H	-0.8292	-4.4342	5.7380
H	-2.0326	-3.9254	4.8124
H	-1.2296	-2.8847	5.7252
H	0.8774	2.3204	7.6754
O	3.1333	-0.3768	3.7123
C	-1.1536	-3.6948	5.1811
O	1.4548	-3.5251	5.5915
*