! UKS B3LYP ma-def2-SVP OPT NumFreq
%basis
NewGTO Ru "ma-def2-TZVP" end
end 

%scf
  maxiter 200
end

%pal 
	nprocs 16
end
* xyz 0 1
H	3.2244	3.5443	-2.5055
N	0.2801	2.3027	0.3694
C	-0.4852	-2.2814	-0.6198
N	1.5472	-0.1150	1.4727
H	3.8376	1.3428	-3.5315
C	-1.5886	-2.1847	0.2233
C	-1.9965	-1.0015	0.8727
H	1.5784	-3.6662	-2.6142
C	-3.2025	-0.7867	1.5984
H	-0.4208	-4.3009	-1.3009
C	-3.1834	0.4959	2.0758
H	-3.8979	-1.4207	1.7274
C	-1.9643	1.1118	1.6645
H	-3.8669	0.9064	2.5928
H	-0.3373	5.1155	1.6722
C	-1.5731	2.4453	1.9021
C	-0.4912	3.0348	1.2397
H	1.4519	5.2213	-0.0710
C	-0.0176	4.3830	1.1573
H	4.9779	-0.8874	-2.2447
C	0.9808	4.4432	0.2039
C	1.1692	3.1333	-0.2851
H	5.9989	-2.9214	-5.5878
C	3.3616	-1.5353	-3.3129
H	3.7338	-3.2387	-6.0773
C	4.7202	-1.3643	-3.0260
H	2.0913	-2.3837	-4.6581
C	5.6972	-1.8828	-3.8688
H	-2.7516	4.8511	1.6614
C	5.3322	-2.5734	-5.0059
H	-3.8001	6.1601	3.2836
C	3.9867	-2.7592	-5.2973
C	3.0085	-2.2466	-4.4542
C	-2.3496	3.2543	2.8780
H	-4.0935	5.3403	5.4549
C	-2.8482	4.5198	2.5466
H	-1.8510	-3.4635	2.4870
H	-3.3444	3.1917	5.9910
C	-3.4840	5.2933	3.5089
H	-2.2184	1.9157	4.4130
H	-3.0438	-5.3785	3.0552
H	-4.2975	-6.5002	1.4310
H	-4.2927	-5.7311	-0.7614
H	-3.1070	-3.8051	-1.3326
C	-3.6617	4.8072	4.7979
Ru	0.6061	0.3604	0.2516
C	-2.3866	-3.4150	0.5282
C	-3.2037	3.5390	5.1183
C	1.9636	2.4365	-1.2232
C	-2.5440	2.7754	4.1754
C	-2.3603	-3.9131	1.8235
N	0.3674	-1.2281	-0.9417
C	2.8893	2.6921	-2.2497
C	-3.0653	-5.0555	2.1633
C	3.2221	1.4752	-2.8198
C	-3.7989	-5.7245	1.1985
C	2.4825	0.4536	-2.1503
H	6.6156	-1.7600	-3.6619
C	-3.8048	-5.2639	-0.0950
C	2.3608	-0.9207	-2.4075
C	-3.0999	-4.1136	-0.4349
N	1.7381	1.0750	-1.1874
C	1.3350	-1.6955	-1.8318
N	-1.2675	0.1750	0.9075
C	1.0726	-3.0869	-2.0560
C	-0.0260	-3.4382	-1.3302
*