! UKS B3LYP ma-def2-SVP OPT NumFreq
%basis

end 

%scf
  maxiter 200
end

%pal 
	nprocs 16
end
* xyz 0 1
Cu	0.3286	-0.5392	-0.7953
F	-0.0175	1.6836	6.7068
F	-3.1789	-4.1226	1.5271
C	-0.8393	1.8115	3.1555
F	0.7676	0.5838	4.3800
C	-1.8748	2.7320	3.2030
F	-5.3140	-5.7196	1.5085
C	-2.2759	3.2871	4.4173
F	-6.8174	-5.9609	-0.7500
F	-6.2092	-4.4892	-2.9415
C	-1.6389	2.9245	5.5706
H	0.3245	-4.1398	-4.0212
H	1.6968	2.8586	2.5355
F	-4.1043	-2.8263	-2.9154
C	-0.6113	2.0462	5.5506
H	-1.7529	-4.6119	-2.7383
C	-3.5407	-3.4369	-0.7019
H	3.9604	0.3082	-4.0963
H	3.4649	2.9588	0.8123
H	-4.1043	-1.4786	1.2476
H	2.6287	-1.6342	-4.9098
C	-3.9129	-4.1899	0.4135
C	-0.2076	1.4845	4.3482
H	-3.1357	0.3544	2.6157
C	-5.0021	-5.0259	0.4132
C	-5.7701	-5.1407	-0.7279
C	-5.4543	-4.3982	-1.8419
F	2.8882	4.0889	-1.8423
C	-4.3494	-3.5609	-1.8188
F	4.9775	5.6397	-2.4577
F	7.4665	4.5610	-2.6496
F	5.7193	0.3148	-1.7758
F	7.8033	1.8840	-2.3573
C	-0.4710	1.1060	1.8853
C	0.7046	1.4700	1.2457
C	4.2199	2.1412	-1.7923
C	4.0888	3.5153	-1.9571
C	5.1675	4.3289	-2.2677
C	1.7086	2.3799	1.7148
C	6.4192	3.7737	-2.3981
N	-1.0831	-0.7929	0.4470
C	2.6759	2.4326	0.7725
C	6.5935	2.4300	-2.2563
N	-0.3885	-1.8624	-1.9268
C	2.3050	1.5531	-0.2947
C	5.5031	1.6150	-1.9571
C	2.7598	0.2278	-2.3184
C	3.0560	1.2788	-1.4700
C	0.4477	-2.3529	-2.8790
C	3.2539	-0.1243	-3.6288
N	1.0874	1.0045	-0.0035
C	-0.0569	-3.5925	-3.3434
C	2.5265	-1.1885	-4.0780
C	-1.3715	0.1144	1.4498
N	1.7755	-0.6887	-1.9908
C	1.5815	-1.5063	-3.0558
C	-1.1919	-3.8523	-2.6375
C	-2.6979	-0.1125	1.9134
C	-1.3885	-2.7802	-1.7156
C	-2.3361	-2.5732	-0.7157
C	-2.2221	-1.5512	0.2480
C	-3.2261	-1.1239	1.1692
F	-2.5183	3.0524	2.0916
F	-3.3192	4.1324	4.4334
F	-2.0583	3.4309	6.7543
*