! UKS B3LYP ma-def2-SVP OPT NumFreq
%basis

end 

%scf
  maxiter 200
end

%pal 
	nprocs 16
end
* xyz 0 1
H	-1.4573	1.7000	-3.5728
N	1.1812	-1.4283	1.9069
C	-1.0132	0.7855	-1.6938
C	-1.0130	0.9994	-3.1090
H	3.6483	-2.9893	3.1792
C	-0.2575	0.0132	-3.6681
H	2.5609	-1.3943	4.7869
C	0.2238	-0.8220	-2.6180
H	-1.7085	4.1264	0.0353
C	1.1051	-1.9251	-2.7749
F	0.0021	-1.6358	5.7902
C	1.7801	-2.4975	-1.7185
F	-0.3199	-0.8006	8.2790
C	2.6764	-3.6321	-1.6299
H	-5.0100	3.3428	-3.1962
H	-3.6624	1.5931	-2.4358
C	3.0277	-3.7780	-0.3180
F	0.6507	2.8585	4.3985
C	2.3571	-2.7478	0.4187
C	-1.4221	1.4145	0.6811
F	0.2895	3.6597	6.9236
C	-1.6360	1.5780	-0.7101
F	-0.2142	1.8472	8.8813
H	-1.9137	1.8434	3.7673
H	-2.9486	2.5490	1.6444
C	2.2219	-2.2975	1.7605
C	1.3738	-2.4233	-4.1615
C	2.9124	-2.4170	2.9961
C	0.3989	-3.0861	-4.9106
C	2.3123	-1.5415	3.8818
C	1.2415	-0.8937	3.1772
C	0.6326	-3.5516	-6.1875
C	0.3654	0.1340	3.5377
C	1.8512	-3.3490	-6.7706
C	-0.5010	0.7692	2.6030
C	2.8423	-2.6962	-6.0691
C	-2.5360	2.6836	-1.1558
C	2.5930	-2.2484	-4.7861
C	-2.3709	3.9704	-0.6266
N	-4.9271	5.8924	-2.5544
C	-3.1646	5.0144	-1.0598
C	-4.1171	4.7679	-2.0345
C	-4.3322	3.5000	-2.5503
C	-3.5286	2.4698	-2.0944
O	-4.5565	7.0295	-2.2841
O	-5.8996	5.6421	-3.2267
N	-0.3861	0.6736	1.2258
N	-0.2734	-0.3553	-1.4162
N	1.6616	-1.9843	-0.4542
C	-1.6170	1.6019	2.8974
C	-2.1841	1.9931	1.7391
C	0.2919	0.5780	4.9573
H	-3.0592	5.8861	-0.6957
C	0.0695	-0.3101	6.0065
C	-0.1001	0.1000	7.3088
C	-0.0312	1.4434	7.6308
C	0.2213	2.3503	6.6187
Cu	0.4737	-0.7291	0.2939
C	0.3866	1.9189	5.3322
H	-0.0830	-0.0987	-4.5945
F	-0.8210	-3.2849	-4.3860
H	2.9677	-4.1742	-2.3530
H	3.6077	-4.4396	0.0395
F	-0.3426	-4.1805	-6.8571
F	2.0733	-3.7553	-8.0199
F	4.0470	-2.4824	-6.6346
F	3.5831	-1.5956	-4.1531
*