! UKS B3LYP ma-def2-SVP OPT NumFreq
%basis
NewGTO I "ma-def2-TZVP" end
end 

%scf
  maxiter 200
end

%pal 
	nprocs 16
end
* xyz 0 1
I	-0.8931	-3.2700	-4.8457
C	-0.4901	3.9343	2.7865
C	2.5155	0.7241	1.1349
C	-0.1937	4.0655	4.1495
C	3.2315	1.8732	1.5775
I	5.2437	2.1674	1.3343
C	2.3040	2.7732	2.0636
I	2.8166	4.6652	2.7085
I	4.2570	-4.3140	-0.7452
C	-0.3292	5.2875	4.7677
I	5.4271	-1.7280	1.5897
C	-0.9360	5.0357	2.0664
C	-4.4997	-0.3230	-1.1137
C	-5.1492	0.8355	-1.5259
C	-6.4876	0.8010	-1.9036
C	-7.1637	-0.4078	-1.8649
C	-6.5281	-1.5702	-1.4525
C	-5.1885	-1.5225	-1.0944
C	-8.5576	-0.4701	-2.2637
C	1.4899	-3.7743	-2.6692
C	0.8730	-5.0162	-2.5940
C	2.0045	-2.0685	-0.9533
Cu	0.0823	-0.0540	0.1017
C	3.2940	-2.4953	-0.4612
H	0.0996	3.3115	4.6470
C	3.7604	-1.5225	0.3928
H	-0.1442	5.3785	5.6946
C	2.7879	-0.4900	0.4150
H	-1.1647	4.9405	1.1489
H	-4.6751	1.6583	-1.5499
N	-0.8967	8.7508	5.0736
H	-6.9299	1.5930	-2.1833
H	-7.0063	-2.3907	-1.4153
H	-4.7405	-2.3195	-0.8346
H	0.1929	-5.1707	-1.9477
C	1.2464	-6.0249	-3.4561
C	-0.7416	6.3942	4.0178
C	-1.0492	6.2657	2.6790
C	-0.8222	7.7051	4.6204
H	0.8385	-6.8815	-3.3967
C	2.4929	-3.5450	-3.6017
I	-3.6110	3.2058	3.6043
H	-1.3371	7.0216	2.1822
H	2.9299	-2.7023	-3.6260
C	0.9977	2.1847	1.8690
C	2.2282	-5.7770	-4.4150
C	-0.2978	2.6486	2.0778
I	-5.5123	0.6048	1.8513
C	2.8576	-4.5298	-4.4874
C	-1.4350	1.9554	1.5740
I	-3.8102	-1.3285	-4.1314
C	-2.7920	2.0734	2.0656
C	2.5964	-6.8175	-5.3428
C	-3.5618	1.2039	1.3397
N	1.2008	0.9256	1.3241
C	-2.7064	0.5889	0.3492
N	-1.4210	1.0528	0.5462
C	-3.0610	-0.2660	-0.7140
N	-0.8725	-1.3250	-0.9837
C	-2.1364	-1.0427	-1.4366
N	1.7625	-0.8279	-0.3959
C	-2.3227	-1.6987	-2.7090
C	-1.1796	-2.3933	-2.9962
C	-0.2662	-2.1560	-1.9003
N	-9.6465	-0.5430	-2.5868
H	3.5283	-4.3658	-5.1407
C	1.0648	-2.6583	-1.7968
N	2.8975	-7.6286	-6.0854
*