! UKS B3LYP ma-def2-SVP OPT NumFreq
%basis
NewGTO Pt "ma-def2-TZVP" end
end 

%scf
  maxiter 200
end

%pal 
	nprocs 16
end
* xyz 0 1
H	-4.1441	-0.1376	-2.3115
H	-4.4772	1.8783	-0.9084
H	-2.8737	-3.7203	-1.8287
H	-4.2226	-4.8390	-3.3327
H	-4.5054	-4.0049	-5.5060
H	-3.4949	-1.9989	-6.1022
H	-4.6826	2.4908	1.6562
H	-6.2502	4.1575	2.0183
H	-5.8121	6.3495	1.4099
H	3.8635	1.4453	3.2442
H	4.7155	-0.6186	2.0983
H	4.5794	-5.7961	0.7490
H	2.3791	-3.5901	-2.0562
H	6.7697	-5.1175	0.4077
H	0.1142	-3.5397	-3.0291
H	-3.7305	6.8943	0.4272
H	-1.0255	4.5169	2.6713
H	-2.6302	-0.8245	4.1608
H	2.8299	-4.2521	0.5225
H	5.5330	-1.3539	-0.3314
H	-2.1192	-0.8661	-4.5905
C	-3.5097	0.2353	-1.7106
C	-3.6921	1.3446	-0.9458
C	-2.4656	1.5649	-0.1957
H	-2.0982	5.2291	0.1844
H	1.6357	3.0216	-0.2833
H	2.5961	4.3779	-1.8990
H	2.4772	3.7281	-4.1446
H	1.3473	1.7942	-4.6900
H	0.4225	0.4648	-2.9934
H	0.9837	-2.2099	1.5768
H	-1.4537	-2.7515	4.7621
H	-1.9677	0.4323	2.3022
Pt	0.2004	0.3459	0.1645
C	2.1907	1.2898	1.9442
C	-2.3810	-2.1717	-3.0296
C	3.4339	0.9725	2.5414
C	-2.9998	-3.3598	-2.6986
C	3.9054	-0.1653	1.8960
C	-3.7938	-4.0320	-3.5927
C	1.8075	-1.9275	-0.8528
C	-3.9699	-3.5344	-4.8781
C	2.8900	-1.6581	0.0038
C	-3.3612	-2.3532	-5.2308
C	2.9801	-0.5420	0.8905
C	-2.5527	-1.6695	-4.3287
C	1.6932	-2.9729	-1.8287
C	-3.2438	3.6911	0.8670
C	0.4526	-2.9409	-2.3743
C	-0.2635	-1.8385	-1.7816
C	-4.4794	3.3875	1.4192
C	-1.5714	-1.4128	-2.0356
C	-5.4147	4.3781	1.6251
C	-2.1968	-0.2749	-1.4557
C	-5.1570	5.6758	1.2698
C	-3.9140	6.0022	0.6971
C	-2.9549	5.0070	0.5306
C	-2.1979	2.6377	0.6760
C	-0.9774	2.8066	1.3931
C	-0.5350	3.7607	2.3733
C	0.7286	3.3921	2.8082
C	1.0994	2.2097	2.0996
C	3.9927	-2.6385	0.0787
C	3.7281	-3.9692	0.3945
C	4.7687	-4.8925	0.5269
C	6.0644	-4.4862	0.3314
C	6.3533	-3.1886	0.0315
C	5.3263	-2.2539	-0.1095
C	1.5882	2.7529	-1.1924
C	2.1589	3.5724	-2.1481
C	2.0801	3.1958	-3.4657
C	1.4314	2.0590	-3.7819
C	0.8773	1.2658	-2.7620
C	-0.4532	-0.7725	1.7304
C	0.2406	-1.9206	2.0931
C	-0.1545	-2.6442	3.2118
C	-1.2032	-2.2516	3.9937
C	-1.8882	-1.1092	3.6406
C	-1.4997	-0.3651	2.5202
C	0.6182	-3.8232	3.5478
N	1.9725	0.3836	0.9626
N	0.5944	-1.2598	-0.8990
N	-1.6157	0.5434	-0.5310
N	0.0362	1.9312	1.2761
N	0.9759	1.6071	-1.4839
N	1.2361	-4.7704	3.7920
H	1.2519	3.8436	3.4602
H	7.2573	-2.9195	-0.0844
*