! UKS B3LYP ma-def2-SVP OPT NumFreq
%basis

end 

%scf
  maxiter 200
end

%pal 
	nprocs 16
end
* xyz 0 1
H	5.4826	2.1777	0.6286
H	7.2294	2.3052	-3.7164
H	4.9737	1.7408	-3.3704
H	1.2025	-2.5336	-4.8211
H	1.7878	4.9710	1.0519
H	3.6850	4.2046	-0.3486
H	1.1337	-6.8940	-3.1456
H	0.7680	-5.0934	-1.6779
H	-6.3408	3.2707	7.7314
C	-3.3206	4.5785	7.7196
H	-2.0024	4.2175	6.2132
H	-2.2558	4.5814	1.8920
H	-2.6572	6.3576	3.3703
H	-1.0783	6.9120	4.9984
H	0.9296	5.7460	5.1120
H	1.3736	3.9969	3.6152
H	7.7418	2.6877	0.2688
H	-4.7105	-9.2232	-4.8630
H	-6.0363	-7.6747	-3.7399
C	-3.7068	3.1919	5.7601
C	-1.9158	0.0305	0.7245
C	-2.8050	0.4072	1.7556
C	-2.2830	1.5818	2.3303
C	-1.0811	1.9299	1.5690
C	2.7495	2.2809	-0.3325
C	3.5990	1.4457	-1.0948
C	3.2191	0.1752	-1.5803
C	4.0640	-0.8161	-2.1877
C	3.2648	-1.8804	-2.5053
C	1.9253	-1.5710	-2.0901
C	0.8080	-2.4734	-2.1919
C	-0.3510	-2.2643	-1.4649
C	-1.6535	-2.9132	-1.4890
C	-2.4847	-2.1741	-0.6479
C	-1.7031	-1.1226	-0.1142
C	-2.7879	2.1978	3.5085
C	-0.1516	2.9670	1.6769
C	1.0432	2.9656	0.9110
C	1.9162	4.0943	0.7108
C	2.9555	3.6746	-0.0537
C	5.0166	1.8697	-1.3482
C	5.8358	2.1835	-0.2514
C	6.8769	2.2708	-2.8355
H	1.4749	-4.3442	-6.2591
C	5.5323	1.9313	-2.6260
C	0.9719	-3.6223	-3.0986
H	1.4439	-6.5316	-5.4204
C	1.1785	-3.4189	-4.4739
C	1.3456	-4.4932	-5.3300
C	1.3253	-5.7939	-4.8331
H	-1.4239	-6.9627	-4.1645
C	1.1312	-6.0059	-3.4838
H	-2.4007	-8.8507	-5.1014
H	8.6044	2.7908	-1.8762
C	0.9303	-4.9344	-2.5994
C	-3.2349	2.6375	4.5370
C	-2.0756	-4.0477	-2.2223
C	-5.0044	2.9255	6.2135
C	-2.5602	-5.0203	-2.7597
C	-3.1364	-6.1763	-3.3630
C	-5.4653	3.4712	7.4204
C	-2.8809	4.0256	6.5193
C	-4.6475	4.2963	8.1534
C	-0.4020	4.1058	2.6023
C	-1.6015	4.8149	2.5396
C	-1.8444	5.8706	3.4252
C	-0.9044	6.2058	4.3871
C	0.2837	5.5110	4.4570
C	0.5469	4.4653	3.5649
C	7.1775	2.5043	-0.4730
C	7.6926	2.5588	-1.7420
C	-4.3157	-8.4439	-4.4880
C	-5.0993	-7.5357	-3.8161
C	-4.5108	-6.4098	-3.2479
N	-0.9476	0.9641	0.5871
N	-0.4469	-1.2129	-0.5610
N	1.9122	-0.3046	-1.5472
N	1.5855	1.8647	0.2484
C	-2.3578	-7.1060	-4.0699
C	-2.9357	-8.2262	-4.6255
H	-4.9709	4.6831	8.9591
H	-2.7489	5.1329	8.2371
H	-5.0506	-5.7896	-2.7729
Cu	0.6049	0.3559	-0.3393
H	-3.6006	-0.0440	2.0127
H	4.9985	-0.7459	-2.3393
H	3.5464	-2.6840	-2.9266
H	-3.4031	-2.3431	-0.4680
H	-5.5772	2.3697	5.6992
*