! UKS B3LYP ma-def2-SVP OPT NumFreq
%basis

end 

%scf
  maxiter 200
end

%pal 
	nprocs 16
end
* xyz 0 1
H	0.3309	2.5402	1.3572
H	-3.3205	3.5556	-1.2222
H	-2.4278	1.4069	-1.2102
H	-0.9510	-2.8449	-0.8556
H	-0.4601	-5.0586	-0.4286
H	1.2400	-5.6082	1.0304
H	2.3351	-3.9141	2.1701
H	1.6940	-1.7015	1.8132
C	-0.9031	4.0293	0.7943
C	-1.9415	4.3295	0.0683
C	1.1869	0.6985	3.1205
C	1.9381	0.7569	1.9275
C	3.3133	1.1267	1.8052
F	2.2664	4.3169	6.2021
C	3.6489	1.0619	0.5017
C	2.4760	0.6590	-0.2308
C	1.8751	1.2104	4.3511
C	2.3585	0.4978	-1.6186
C	1.7551	2.5187	4.7542
C	2.3755	3.0212	5.8565
C	1.1832	0.0854	-2.2828
C	3.1667	2.1964	6.6225
C	0.9979	-0.0663	-3.6921
C	-0.2804	-0.4803	-3.8812
C	3.3181	0.9055	6.2584
C	-0.9177	-0.5941	-2.6048
C	2.6869	0.4298	5.1255
C	-2.2420	-1.0080	-2.3677
C	-2.8175	-1.1250	-1.0873
C	-4.1103	-1.5200	-0.5819
C	-4.0703	-1.3983	0.8065
C	-2.7969	-0.9211	1.1399
C	-2.0639	-0.5340	2.3130
C	-2.2844	-0.4250	3.6938
C	-1.1140	0.0538	4.2491
C	-0.1544	0.2371	3.1816
C	3.5798	0.7174	-2.4552
C	3.8561	1.9420	-3.0416
C	4.9816	2.1395	-3.8236
C	5.8528	1.1172	-4.0464
C	5.6202	-0.0995	-3.4660
C	4.5018	-0.2812	-2.6805
C	-3.0840	-1.2751	-3.6006
C	-3.1240	-2.5107	-4.2076
C	-3.8704	-2.7351	-5.3590
C	-4.5537	-1.7001	-5.9179
C	-4.5125	-0.4566	-5.3756
C	-3.7698	-0.2575	-4.2246
C	-0.4233	2.7305	0.8112
C	-2.5570	3.3546	-0.6930
C	-2.0263	2.0731	-0.6653
C	-0.2828	-3.0543	-0.2128
C	0.0213	-4.3737	0.0208
C	1.0027	-4.6992	0.8890
C	1.6412	-3.7116	1.5533
C	1.2656	-2.3906	1.3191
C	-0.9395	0.2671	5.7079
C	-5.2771	-2.0478	-1.3314
F	3.8173	2.6594	7.6939
F	4.0947	0.0917	6.9935
F	2.8589	-0.8595	4.7946
N	1.4510	0.4662	0.6596
N	0.0056	-0.2338	-1.6417
N	-2.0542	-0.7821	0.0010
N	-0.7868	-0.1469	2.0407
N	-0.9637	1.7208	0.1009
N	0.3303	-2.0557	0.4354
H	-0.4741	4.7022	1.3098
H	-2.2769	5.2183	0.0618
F	0.9930	3.3594	4.0294
F	6.9445	1.3115	-4.8035
F	6.4877	-1.1092	-3.6732
F	-0.7953	1.5501	6.0502
F	0.1134	-0.3618	6.2418
F	3.0225	2.9770	-2.8397
F	5.2106	3.3404	-4.3830
F	4.3165	-1.4868	-2.1260
F	-2.4601	-3.5394	-3.6635
F	-3.9128	-3.9455	-5.9231
F	-5.2625	-1.9071	-7.0456
F	-5.1668	0.5531	-5.9490
F	-3.7298	0.9781	-3.6970
F	-5.7799	-1.1803	-2.1871
F	-5.0105	-3.1601	-2.0301
F	-2.0215	-0.1738	6.3867
F	-6.2803	-2.3764	-0.5001
Co	-0.2919	-0.1578	0.2302
H	3.8897	1.3758	2.5169
H	4.5039	1.2487	0.1343
H	1.6467	0.0922	-4.3680
H	-0.6852	-0.6633	-4.7200
H	-4.7741	-1.6005	1.4110
H	-3.0850	-0.6391	4.1582
*