! UKS B3LYP ma-def2-SVP OPT NumFreq
%basis

end 

%scf
  maxiter 200
end

%pal 
	nprocs 16
end
* xyz 0 1
C	-3.1024	6.2200	-2.0756
C	-4.0177	5.9722	-3.0425
F	-1.4869	5.4743	-0.5634
F	-2.8925	7.4861	-1.6451
F	-4.7251	6.9833	-3.5879
H	3.5961	1.2073	-1.1242
H	3.1624	-1.7486	-3.0197
H	3.3660	0.1182	2.8690
H	5.3017	-0.1790	-1.8226
H	5.5881	-2.2475	-0.8583
H	3.5671	0.4479	5.1397
H	4.1482	-2.9646	0.7930
H	5.2211	-2.3418	-4.0585
H	0.7684	-2.6890	-6.8421
H	3.0386	-3.0028	-6.8122
C	3.6959	0.3657	-0.7421
C	3.3246	-2.4148	-4.9213
C	4.7207	-0.4617	-1.1531
C	4.8905	-1.6984	-0.5807
C	4.0283	-2.1287	0.4041
C	4.7989	-2.5689	-4.8555
O	5.4802	-2.9610	-5.7458
Co	-0.5293	0.0357	0.2762
P	1.4083	0.9443	0.8226
H	0.0102	2.2996	2.8792
H	-3.5071	4.0066	0.8740
H	-1.1217	2.6391	-3.9326
H	0.9497	-4.7291	0.2150
H	-3.5303	2.7201	2.9832
H	-1.5635	-2.3464	4.5380
H	1.4850	-3.8858	-2.0161
H	-2.6252	-0.1393	4.6546
H	0.2260	0.7179	-4.5854
H	-0.3318	-1.9166	-4.9388
H	0.2392	2.6229	5.1428
H	2.0623	3.5917	1.8860
H	1.4153	2.1204	-1.7915
H	2.4087	-1.6251	1.4718
H	2.0044	1.6899	6.2737
H	1.7254	4.2276	-2.6769
C	-2.1460	2.5444	0.1506
C	0.6233	-2.0597	-1.4127
C	1.3007	-1.7477	-3.7784
C	-2.1885	1.4014	2.0574
C	-1.8455	0.2078	2.7277
C	2.8070	-0.0610	0.2472
C	0.0195	0.0291	-2.6013
C	1.6579	1.1375	2.6205
C	-0.8999	-1.8044	2.6022
C	0.7275	1.9143	3.3295
C	-1.9136	2.7207	-1.2077
C	-1.1675	1.8169	-1.9903
C	0.1692	-2.8106	0.6286
C	0.6222	-1.2225	-2.5370
C	-3.0322	3.2275	1.0503
C	1.6876	2.6270	0.1445
C	-0.8602	1.9415	-3.3761
C	0.7797	-3.8710	-0.1021
C	-0.2996	-2.8772	1.9587
F	-0.2114	-7.6915	4.8805
C	-3.0437	2.5111	2.2185
C	-1.5460	-1.6947	3.8749
C	-0.2447	-4.1743	2.6979
C	1.0688	-3.4074	-1.3359
C	-2.6081	3.8551	-1.8839
C	-3.5672	3.6541	-2.8425
C	-2.1289	-0.4728	3.9418
C	-0.1264	0.8761	-3.7392
C	0.5910	-2.0350	-4.9244
C	2.6697	-1.9388	-3.7851
C	-1.4059	-4.8796	2.9856
C	0.8656	2.1116	4.6833
C	1.9966	3.7108	0.9659
C	-1.4036	-6.0423	3.7148
C	0.9149	-4.7230	3.1709
C	2.7220	0.6147	3.3194
C	1.6040	2.8354	-1.2272
C	2.9922	-1.3248	0.8127
C	-0.2346	-6.5491	4.1769
H	2.2342	5.9939	-1.3051
C	1.2523	-2.5036	-6.0697
C	0.9363	-5.8919	3.9069
H	2.4212	5.6847	0.9626
C	-2.3917	5.1818	-1.5074
C	2.6047	-2.6885	-6.0520
C	2.1004	5.1485	-0.9417
C	-4.2635	4.6788	-3.4470
C	2.2072	4.9660	0.4129
C	2.8478	0.8182	4.6810
C	1.9187	1.5605	5.3567
C	1.7989	4.0955	-1.7593
N	-1.6255	1.4621	0.8067
N	-1.0716	-0.6066	1.9450
N	0.0681	-1.6931	-0.1872
N	-0.6204	0.6358	-1.5186
F	-3.8963	2.3973	-3.2012
F	-2.5876	-4.4436	2.5354
F	2.0836	-4.0993	2.9324
F	-2.5586	-6.6681	3.9981
F	2.1114	-6.3740	4.3621
F	-5.1812	4.4161	-4.3774
*