! UKS B3LYP ma-def2-SVP OPT NumFreq
%basis
NewGTO Rh "ma-def2-TZVP" end
end 

%scf
  maxiter 200
end

%pal 
	nprocs 16
end
* xyz 0 1
C	0.3878	0.1290	-3.7329
C	0.5853	-1.1441	-3.2947
C	0.5923	-1.1458	-1.8407
H	0.6997	-1.9063	-3.8484
H	1.0366	-4.1092	1.2506
H	0.6962	-3.1909	3.4791
C	-0.4194	0.9569	3.3535
C	-0.7971	1.9984	4.2435
C	-0.9799	3.1499	3.4791
H	-4.2081	-1.6682	1.5530
C	-0.7495	2.8197	2.1305
H	-5.2692	-1.3856	-0.5192
C	-0.2263	3.0431	-3.8314
C	-1.4164	3.4521	-4.2832
C	-1.6200	4.1618	-5.4620
C	-0.5069	4.4805	-6.1686
C	0.7230	4.0961	-5.8323
C	0.8356	3.3782	-4.6229
C	-0.1579	-0.9191	4.9229
C	-1.3445	-1.1885	5.5106
C	0.9448	-1.1458	5.6737
C	-2.5095	-0.6842	1.0095
C	-3.7802	-1.1951	0.8498
C	-4.4160	-0.9979	-0.3630
C	-3.8218	-0.2489	-1.3379
C	-2.5780	0.2587	-1.0696
C	2.4476	1.1162	1.9640
C	-4.4784	0.0189	-2.6356
C	3.7036	1.6090	2.3004
C	4.4190	2.3712	1.3865
C	3.8785	2.6423	0.1330
C	0.7213	-2.2185	-0.9133
C	2.6226	2.1495	-0.1999
C	4.5169	3.4571	-0.9201
N	1.9071	1.3873	0.7139
N	-0.4680	2.5224	-0.1727
N	0.3991	0.1372	-1.4466
C	0.6763	-2.1725	0.4863
C	0.8296	-3.2041	1.4443
N	0.4528	-1.0127	1.1861
F	1.8318	4.3918	-6.5151
N	-0.4238	1.4891	2.1067
C	0.6382	-2.7063	2.6638
F	2.0881	3.0464	-4.2187
N	-1.8928	0.0485	0.0854
C	0.3298	-1.3018	2.5381
F	-2.5554	3.1482	-3.6388
F	-2.8404	4.5084	-5.8935
F	-0.6568	5.1425	-7.3474
F	2.1826	-0.8862	5.1974
F	-2.5095	-0.9864	4.8346
C	1.8673	-4.0813	-2.1906
C	1.8144	-5.3215	-2.7885
C	-1.4684	-1.6797	6.8287
C	-0.3250	-1.8686	7.5081
C	0.8781	-1.6386	7.0053
C	0.7664	-3.5688	-1.5418
C	0.6797	-6.0657	-2.7647
C	-0.3943	-5.6369	-2.1023
C	-0.3337	-4.3375	-1.4908
H	-1.1150	5.4743	0.5882
H	-0.7486	5.1507	-1.8509
H	0.3393	0.4214	-4.6365
H	-0.9054	1.9228	5.1845
H	-1.2181	4.0074	3.8087
H	-2.0505	-0.8649	1.8214
H	-2.1665	0.7959	-1.7354
H	-3.8920	0.5758	-3.1894
H	-5.3255	0.4871	-2.4828
H	-4.6516	-0.8287	-3.0942
F	2.0007	-1.8341	7.7102
F	2.9742	-3.3601	-2.2779
F	2.9422	-5.7601	-3.4306
F	-2.6906	-1.8817	7.3450
H	1.9591	0.5955	2.5925
F	-0.4290	-2.3334	8.7854
H	4.0734	1.4234	3.1564
H	5.2774	2.7080	1.6141
H	2.2527	2.3351	-1.0560
H	3.9227	3.5080	-1.6980
F	0.6962	-7.2632	-3.3456
H	5.3658	3.0448	-1.1817
F	-1.4987	-6.3597	-2.0377
H	4.6841	4.3606	-0.5770
F	-1.4632	-3.9515	-0.8793
Rh	0.0128	0.7167	0.3888
C	-0.0998	2.3384	-2.5269
C	-0.0418	-0.3885	3.5403
C	-0.7434	3.4144	0.8056
C	-0.9028	4.6513	0.1602
C	-0.7010	4.4788	-1.1817
C	-0.4065	3.1088	-1.3889
C	0.2709	0.9339	-2.5643
*