! UKS B3LYP ma-def2-SVP OPT NumFreq
%basis

end 

%scf
  maxiter 200
end

%pal 
	nprocs 16
end
* xyz 0 1
Co	-1.0111	1.1728	0.3539
H	3.5128	0.1831	3.3749
P	2.0610	-4.5186	-3.0198
H	3.7864	2.1274	1.2456
H	2.8723	4.3115	0.5942
H	-2.2383	5.7510	-1.1749
H	-4.3128	4.4011	-1.1533
H	-5.7484	1.2788	-0.6803
H	-5.4460	-1.0665	0.1625
H	-0.6871	-3.6517	1.6153
H	1.5794	-2.8389	1.7919
H	3.3140	-2.9463	-4.1951
H	2.5495	-2.2409	-2.9767
H	2.9335	-4.6793	0.0754
H	3.1339	-5.8717	-0.9776
H	0.7655	-5.6497	0.5227
H	2.0262	-6.4625	1.0750
H	1.2939	-6.9387	-0.2658
H	-0.7330	-4.9873	-4.7906
H	-0.0109	-5.9863	-3.7695
H	-1.3276	4.1289	4.2762
H	-1.0711	-4.9658	-2.0202
H	-2.3742	2.6752	5.7290
H	-2.1279	-5.5279	-3.0827
H	-3.0657	0.5949	4.8165
H	-1.7898	-3.9632	-3.0396
H	-2.4303	-0.0138	2.6829
H	0.6007	2.2813	-1.8703
H	1.4162	1.6440	-3.8944
H	0.9456	-0.4936	-4.7337
H	-0.5206	-1.8578	-3.5135
H	-1.3140	-1.1345	-1.4799
H	-0.7925	3.5274	2.1633
C	1.8954	-0.0353	1.2542
C	1.8240	1.3404	0.9888
C	2.8825	2.3035	1.0130
C	2.3813	3.5009	0.6493
C	0.9881	3.3491	0.3615
C	0.0944	4.2858	-0.1107
H	5.6519	-0.6547	3.7678
C	-1.2563	4.0373	-0.4416
C	-2.3080	4.8400	-0.9138
C	-3.4412	4.0946	-0.9345
C	-3.0810	2.7851	-0.5717
C	-3.6740	1.4976	-0.3485
C	3.9308	-0.3468	2.7062
C	-4.9329	0.8813	-0.3959
C	-4.7596	-0.4195	0.0504
C	-3.4021	-0.6060	0.3055
C	-2.6240	-1.7146	0.8174
C	-1.2835	-1.6809	1.0733
H	6.6831	-2.0154	2.2193
C	-0.4119	-2.7555	1.4550
H	7.3509	-3.5837	-0.1934
C	0.8199	-2.3212	1.5515
H	7.2676	-4.5003	-2.3296
C	0.8148	-0.9029	1.2241
H	5.4344	-4.2711	-3.6687
C	3.2631	-0.5817	1.5308
C	3.9172	-1.3834	0.6373
C	4.4235	-2.5550	-1.1620
C	4.3028	-3.1175	-2.4226
C	3.0711	-3.0416	-3.2404
C	2.4577	-5.3095	-0.5234
C	1.5607	-6.1617	0.2676
C	-0.3660	-5.0660	-3.8746
C	-1.4228	-4.8655	-2.9302
C	0.5888	5.7055	-0.2382
C	-4.2567	-4.5934	2.6855
C	0.7689	6.3024	-1.4601
C	1.2209	7.6236	-1.5652
C	1.4298	8.3290	-0.4381
C	1.2413	7.8098	0.7941
C	0.8097	6.4635	0.8622
C	-3.3919	-2.9821	1.1060
C	-3.8863	-3.7412	0.1263
C	-1.2427	2.8936	2.7114
C	-4.6033	-4.9443	0.3882
C	-1.5604	3.2589	3.9789
C	-4.7443	-5.2773	1.6997
C	-2.1907	2.4353	4.8277
C	-2.5594	1.2036	4.2909
C	-3.5805	-3.3903	2.3538
C	-2.1975	0.8491	3.0000
C	0.3663	1.4220	-2.2020
C	0.8658	1.0460	-3.4015
C	0.5752	-0.2000	-3.9099
C	-0.2692	-1.0056	-3.1835
C	-0.7415	-0.5613	-1.9780
C	5.2118	-0.8588	2.9527
N	0.6840	1.9870	0.6140
N	-1.7592	2.7740	-0.2710
N	-2.7446	0.5738	0.0556
N	-0.4764	-0.5488	0.9311
N	-0.4340	0.6572	-1.4567
N	-1.5315	1.6769	2.1806
C	5.8252	-1.6466	2.0393
O	3.4262	-1.7543	-0.5864
C	5.1982	-1.9029	0.8570
O	2.6939	-5.7507	-3.5118
O	1.7000	-4.5597	-1.5153
F	-4.4385	-4.9640	3.9307
C	5.5057	-2.6506	-0.3184
O	0.7349	-4.1075	-3.7143
F	-3.1252	-2.6789	3.4068
F	0.5413	5.6364	-2.6001
C	6.5965	-3.4404	-0.7518
F	1.4044	8.1797	-2.7828
C	6.5268	-3.9990	-2.0099
F	1.8393	9.6169	-0.5226
C	5.4327	-3.8558	-2.8147
F	1.4315	8.4894	1.9307
F	0.6364	5.9515	2.1004
F	-3.7844	-3.4014	-1.1749
F	-5.0909	-5.6593	-0.6363
F	-5.4256	-6.4557	1.9195
*