! UKS B3LYP ma-def2-SVP OPT NumFreq
%basis
NewGTO Au "ma-def2-TZVP" end
end 

%scf
  maxiter 200
end

%pal 
	nprocs 16
end
* xyz 0 1
H	-4.7318	0.9116	2.4118
C	3.4110	0.6572	-1.1480
H	2.0596	7.3551	0.9914
C	4.9392	-4.1438	-0.8704
F	-5.4954	-7.0225	2.1446
H	-4.6670	-1.5708	2.2945
C	3.0556	1.9526	-0.9900
H	3.0334	6.3850	-2.8092
C	5.5996	-3.8185	-2.0308
F	6.6983	-4.5500	-2.3868
C	1.6668	2.0039	-0.6488
H	-0.8659	-4.8418	-0.2577
H	2.1244	4.2398	-2.5040
C	5.2004	-2.7952	-2.8695
F	3.1233	8.2553	-1.0979
C	4.0699	-2.0696	-2.5000
C	0.8953	3.1613	-0.3725
H	1.3784	-4.3430	-1.1546
H	-0.8262	5.8605	-0.5549
Au	-0.4522	0.1237	0.1685
C	-0.4271	3.1554	0.1207
C	1.5247	4.4902	-0.5771
H	4.2789	0.3457	-1.3745
C	-2.8929	0.8938	1.3558
C	-1.4322	4.1274	0.4125
H	3.6311	2.7019	-1.0887
C	1.5226	5.4346	0.4667
C	-4.0506	0.3911	2.0031
C	-2.5335	3.4768	0.9792
H	-3.3317	3.8928	1.2799
C	2.0680	6.7162	0.2880
C	-2.2574	2.1064	1.0244
C	-4.0142	-0.9812	1.9357
H	-4.8196	-3.1245	0.2933
C	2.6092	7.0120	-0.9168
C	-2.8344	-1.3716	1.2403
C	-3.1134	-3.8165	1.1619
H	-6.1716	-4.9779	0.8443
C	2.6468	6.1346	-1.9773
C	-2.2925	-2.6118	0.8653
C	-4.4518	-3.8520	0.7796
C	2.1014	4.8648	-1.7892
H	-3.0329	-6.7327	2.6818
C	-1.0396	-2.7755	0.2298
C	-1.4573	5.5313	0.0758
C	-5.2584	-4.9483	1.1044
H	-1.6872	-4.9069	2.1231
N	-2.2039	-0.2109	0.9295
C	-0.4540	-3.9861	-0.2730
C	-4.6942	-5.9716	1.8058
H	3.3636	-3.5957	0.2881
N	-0.0785	-1.8026	-0.0371
C	0.7768	-3.7179	-0.7686
C	-3.3882	-5.9972	2.1984
H	5.2381	-4.8596	-0.3222
C	3.8233	-3.3966	-0.5187
C	2.2540	-0.1709	-0.9141
N	1.2447	0.7002	-0.6206
C	1.0014	-2.3062	-0.6033
C	-2.6004	-4.9108	1.8662
O	-2.2681	6.3278	0.5796
H	5.6790	-2.5941	-3.6657
N	-0.9992	1.9651	0.5059
C	2.1568	-1.5747	-0.9464
C	3.3709	-2.3594	-1.3307
H	3.7690	-1.3637	-3.0593
H	1.1423	5.2020	1.3047
*