! UKS B3LYP ma-def2-SVP OPT NumFreq
%basis
NewGTO Au "ma-def2-TZVP" end
end 

%scf
  maxiter 200
end

%pal 
	nprocs 16
end
* xyz 0 1
H	2.4559	5.4267	-0.0506
C	3.3099	1.2593	2.2426
C	-3.0252	-4.4703	0.6848
H	5.9703	-0.6013	7.5385
C	0.4313	-1.2557	2.5285
H	-1.8697	-3.3780	2.9868
H	6.1663	-1.8275	8.4953
C	4.3146	-1.8472	5.9086
C	-4.2849	-3.6165	-2.3308
H	4.7610	-1.1429	8.3762
H	4.0974	6.8594	-0.8807
C	4.0908	-2.7267	4.8295
C	-3.4781	-1.2094	-1.7091
S	-4.9679	-2.1280	-1.9628
H	2.4428	-2.9558	1.9740
N	-0.0684	1.6502	-1.3161
C	2.5135	-1.0654	3.9077
C	-2.8534	3.4606	-4.3103
N	-1.6769	-0.2682	-0.8659
C	-4.7430	-2.9067	1.3137
C	3.0080	3.8258	-1.1088
C	6.0585	6.3614	-2.4952
N	1.4360	1.1153	1.0135
H	3.9971	2.4505	-2.2450
N	-0.3860	-1.0654	1.4709
S	-1.4188	2.7370	-4.8383
C	-5.3729	0.7656	-3.6385
O	5.2048	-2.2998	6.8018
C	3.3672	2.2262	1.3280
S	1.1752	4.5556	-3.6407
C	-3.0564	-0.1757	-2.6095
H	-6.4253	-3.7637	2.0112
S	-3.8221	0.2343	-4.1452
C	4.6321	-4.7480	3.6004
H	-3.5699	-6.3799	1.0165
H	3.1934	-4.4482	-0.1626
H	5.6276	3.8777	-2.9954
C	3.2162	-2.3255	3.7862
H	2.0099	-4.5337	0.8619
C	4.7987	-3.9508	4.7152
C	3.6431	-0.6745	6.0157
H	2.4953	-5.8240	0.1155
N	-6.7367	-7.1499	2.1569
C	3.0757	5.1116	-0.6658
H	-2.1778	-4.6551	0.3449
Au	-0.1496	0.3500	0.1590
C	1.6286	-0.6025	2.8072
N	-1.0054	6.3820	-3.5170
C	-1.2969	-2.7113	2.6928
O	3.6847	-5.2469	1.5409
C	4.0023	3.3372	-1.9735
C	2.1803	2.1491	0.4776
N	-3.8216	3.9287	-3.9315
H	2.2724	0.4891	5.1029
C	5.0330	5.4716	-1.9878
C	-0.1101	5.6362	-3.5170
N	-6.3984	1.0947	-3.3813
C	5.5535	-1.3895	7.8951
C	4.0804	5.9654	-1.1374
C	-1.9268	0.4055	-2.0521
N	-3.8945	-4.6811	-2.5881
C	2.0866	0.5135	2.0640
C	0.8373	2.6223	-1.5662
N	6.8393	7.0352	-3.0383
C	3.0393	-3.1844	2.6500
C	0.4365	3.1880	-2.8024
C	2.7373	-0.3094	5.0082
C	-3.4624	-3.1330	0.8134
H	5.3815	-4.2167	5.3914
C	1.9357	2.8589	-0.6658
C	-5.1282	-5.2263	1.5352
C	-0.6775	2.4577	-3.2669
H	0.1463	-2.6601	4.1199
C	-0.1778	-2.3152	3.3217
H	3.9591	1.0874	2.8855
C	3.7784	-4.3725	2.5714
C	-2.5931	-1.2506	-0.6158
H	-5.0437	-2.0324	1.4003
C	-5.5759	-3.9354	1.6781
H	4.0487	2.8545	1.2419
C	-2.4630	-2.0529	0.5347
H	3.7787	-0.1191	6.7462
C	-6.0236	-6.2910	1.8996
C	-3.8633	-5.4989	1.0707
C	4.9809	4.1910	-2.4023
C	-1.0054	1.4959	-2.3165
C	-1.4687	-1.9346	1.4780
H	5.0947	-5.5516	3.5409
C	2.7738	-4.9949	0.5062
*