! UKS B3LYP ma-def2-SVP OPT NumFreq
%basis

end 

%scf
  maxiter 200
end

%CPCM SMD TRUE
    SMDSOLVENT "ACETONITRILE"
END

%pal 
	nprocs 16
end
* xyz 0 1
Cr	0.6434	0.3725	0.4065
H	2.2660	-3.0165	-2.9772
H	-0.1838	-2.9182	-3.3108
H	-4.0826	0.2065	-1.2092
H	-4.0694	2.1252	0.3588
H	5.0656	2.1453	1.5196
H	5.6475	0.1548	0.1297
F	-1.6136	5.5713	0.4289
H	3.2124	-0.6387	2.6606
F	-3.5439	7.3023	1.1479
H	2.8656	-1.9960	1.8872
F	-5.5005	6.5374	2.8622
F	-5.4715	4.0343	3.9252
H	-2.7835	-0.9023	3.5825
H	-2.2353	-1.4599	2.1865
H	-1.9341	0.0513	2.6195
C	2.0213	-1.4369	-1.5591
C	1.6649	-2.4274	-2.5344
C	0.3238	-2.3770	-2.7162
C	-0.1881	-1.3621	-1.8535
C	-1.5144	-0.9460	-1.7113
C	-1.9742	0.1010	-0.9066
C	-3.3189	0.5673	-0.7744
C	-3.3105	1.6231	0.0857
C	-1.9677	1.8465	0.5064
C	-0.7562	-1.8074	4.9118
C	2.0357	2.5875	1.5241
C	0.4246	-2.2341	5.5308
C	3.0477	1.7469	1.0032
C	1.6119	-2.1851	4.8010
C	1.6745	-1.6775	3.5196
C	4.4539	1.5928	1.0457
C	4.7737	0.4979	0.2781
C	3.5608	-0.0324	-0.2543
C	0.4261	-2.7302	6.9453
C	3.3037	-1.1062	-1.1045
C	-2.5706	-1.6264	-2.5176
C	-3.3444	-2.6482	-2.0005
C	-4.4250	-3.1717	-2.6806
C	-4.7469	-2.6646	-3.9010
C	-3.9841	-1.6832	-4.4836
H	0.1777	4.8613	2.7137
C	-2.9025	-1.1736	-3.7794
H	2.6099	4.3352	2.5917
C	4.4638	-1.9279	-1.5622
C	5.2933	-1.5381	-2.6007
C	6.3729	-2.3013	-3.0113
C	6.6526	-3.4808	-2.3690
C	5.8629	-3.8970	-1.3304
C	4.7816	-3.1301	-0.9512
C	0.4655	-1.2146	2.9354
C	-0.7738	-1.3138	3.6196
C	2.9673	-1.5823	2.7699
C	-2.0428	-0.8670	2.9430
N	0.8553	-0.7928	-1.1490
N	-1.1512	0.8957	-0.1172
N	0.7789	2.1491	1.1805
N	2.5276	0.7485	0.2081
C	-1.4961	2.8810	1.3328
N	0.5100	-0.6015	1.7137
C	-0.1443	3.0557	1.6266
C	0.5654	4.1019	2.2965
F	-3.0658	-3.1313	-0.7832
C	1.9033	3.8130	2.2310
F	-5.1529	-4.1622	-2.1641
F	-5.8044	-3.1557	-4.5764
F	-4.2669	-1.2241	-5.7050
F	-2.1873	-0.1952	-4.3377
F	-3.5352	2.3029	3.2510
F	5.0520	-0.3868	-3.2331
F	7.1331	-1.8923	-4.0391
F	7.6799	-4.2365	-2.7718
F	6.1361	-5.0612	-0.7235
C	-2.5031	3.8723	1.8044
F	4.0280	-3.5765	0.0637
C	-2.5394	5.1741	1.3138
C	-3.5331	6.0647	1.6625
C	-4.5251	5.6800	2.5281
C	-4.5107	4.4135	3.0645
C	-3.5099	3.5342	2.7057
H	-1.5726	-1.8585	5.3953
H	2.4085	-2.5132	5.2004
H	3.6694	-2.0465	3.2708
H	0.1542	-3.6712	6.9605
H	-0.2029	-2.2004	7.4784
H	1.3269	-2.6432	7.3224
*