! UKS B3LYP ma-def2-SVP OPT NumFreq
%basis

end 

%scf
  maxiter 200
end

%CPCM SMD TRUE
    SMDSOLVENT "ACETONITRILE"
END

%pal 
	nprocs 16
end
* xyz 0 1
Co	-0.9003	0.0304	0.4577
C	1.1100	1.3826	5.6211
C	0.0235	-2.9959	1.6292
P	0.5317	-1.6459	0.5029
C	0.7659	-3.3996	2.7391
H	-4.7639	-2.7268	1.5836
C	0.3515	-4.4842	3.5014
H	-4.6722	-2.9636	-0.8917
H	-1.4705	-0.1904	-4.5061
C	-0.7940	-5.1758	3.1610
H	0.2856	1.5387	-4.1545
C	-1.5336	-4.7883	2.0711
C	-1.1317	-3.6983	1.3088
H	2.6780	3.4966	0.3235
C	0.8707	-2.5371	-1.0610
H	2.1792	3.2221	2.7369
C	0.8720	-3.9311	-1.1122
H	-1.7734	0.3263	5.3949
C	1.2044	-4.5972	-2.2933
H	-3.4328	-1.2682	4.4217
H	1.5582	-2.9314	2.9731
C	1.5302	-3.8975	-3.4249
C	1.5531	-2.5048	-3.3863
H	0.8583	-4.7506	4.2586
C	1.2202	-1.8441	-2.2182
H	-1.0709	-5.9213	3.6820
C	2.1698	-1.0812	1.0590
H	-2.3206	-5.2646	1.8396
C	3.2588	-0.9937	0.1952
H	-1.6512	-3.4319	0.5597
C	4.4904	-0.5375	0.6661
H	0.6445	-4.4317	-0.3375
C	4.6441	-0.1540	1.9718
H	1.2069	-5.5472	-2.3121
C	3.5586	-0.1957	2.8364
H	1.7389	-4.3577	-4.2305
C	2.3214	-0.6438	2.3771
H	1.7949	-2.0110	-4.1601
H	1.2299	-0.8941	-2.2052
H	3.1616	-1.2453	-0.7145
N	-2.4325	-1.0246	0.2571
H	5.2307	-0.4918	0.0731
N	-0.8635	0.3559	-1.3982
H	5.4903	0.1393	2.2868
N	0.2523	1.4634	0.8770
H	3.6579	0.0801	3.7410
N	-1.4425	-0.0598	2.2474
H	1.5760	-0.6506	2.9647
F	-1.5634	-3.6862	-3.1672
F	-2.5853	-5.0601	-5.2093
C	-3.0874	-1.4310	1.3822
F	-4.8097	-4.2325	-6.3761
C	-4.1429	-2.3056	1.0014
F	-5.9804	-1.9370	-5.5468
F	2.4301	6.1100	-3.5779
C	-4.0973	-2.4281	-0.3586
F	-4.8486	-0.5133	-3.5526
C	-3.0230	-1.6019	-0.8405
F	3.1972	0.8094	-2.7099
C	-2.5802	-1.2803	-2.1161
F	4.8566	2.1456	-4.3430
F	0.7771	5.4114	6.1631
C	-1.5784	-0.3236	-2.3737
F	4.4825	4.8058	-4.7905
C	-1.1452	0.1178	-3.6685
C	-0.1786	1.0610	-3.4747
F	0.7572	4.7847	-1.9524
C	0.0115	1.2023	-2.0536
F	-0.2382	4.2776	3.9610
C	0.9616	1.9922	-1.3999
C	1.0838	2.1187	-0.0149
F	1.9929	3.8693	8.0705
C	2.0008	2.9449	0.7001
F	2.1751	1.2010	7.7273
C	1.7221	2.7955	2.0210
F	1.2622	0.0516	5.4709
C	0.6259	1.8899	2.1529
C	0.0077	1.4984	3.3523
C	-1.0152	0.5524	3.4001
C	-1.8462	0.0788	4.4816
C	-2.7591	-0.7959	3.9458
C	-2.5120	-0.8645	2.5411
C	-3.2154	-1.9692	-3.2831
C	-2.5980	-3.2597	-3.7188
C	-3.2113	-3.8733	-4.7986
C	-4.1607	-3.6068	-5.4090
C	-4.8478	-2.4079	-5.0855
C	-4.2981	-1.6059	-3.8957
C	1.9170	2.7538	-2.2764
C	2.9811	2.1227	-2.9000
C	3.8393	2.7955	-3.7447
C	3.6614	4.1344	-3.9666
C	2.6238	4.8058	-3.3599
C	1.7732	4.1034	-2.5189
C	0.4897	2.1227	4.6237
C	0.3816	3.4845	4.8560
C	0.8888	4.0833	5.9997
C	1.4930	3.3055	6.9577
C	1.5948	1.9545	6.7800
*