! UKS B3LYP ma-def2-SVP OPT NumFreq
%basis

end 

%scf
  maxiter 200
end

%CPCM SMD TRUE
    SMDSOLVENT "ACETONITRILE"
END

%pal 
	nprocs 16
end
* xyz 0 3
C	0.2252	4.2853	2.2550
C	-1.1655	5.0752	-0.3022
C	1.0465	-0.3585	-5.0514
C	-2.0389	5.7219	0.5630
C	-0.2450	-1.9596	-8.1200
C	-0.9554	-1.5098	-4.5035
C	-1.0959	-1.9222	-5.8220
C	-0.5758	5.8240	-1.3244
C	-0.8584	7.1647	-1.4856
C	-1.7142	7.7827	-0.5915
N	0.4847	2.1808	1.4185
N	1.3915	-0.8220	-0.5524
N	-0.0960	1.4831	-1.0517
N	1.8418	0.2122	1.8101
N	-0.2942	-2.2524	-9.2100
H	-0.4872	-0.1705	5.9133
H	-2.7381	-0.0149	6.4007
H	-3.6475	-0.1368	2.4690
H	6.3110	-4.0956	2.9579
H	-2.4531	5.2328	1.2639
H	-5.5810	0.9843	-1.7200
H	-4.6820	-1.1069	-2.1190
H	-4.5610	2.4313	-0.2095
H	-2.9132	7.5077	1.0120
C	-1.1256	-0.1604	5.2103
C	-2.4580	-0.0769	5.4947
C	-3.0509	1.1716	0.3075
H	-1.8889	8.7121	-0.6781
C	-4.7977	0.7106	-1.2580
C	-4.2754	-0.5317	-1.4828
C	-4.1936	1.5690	-0.3632
C	-2.3129	7.0750	0.4156
H	-0.5775	-4.8909	-0.9288
H	5.3582	-6.2205	2.6794
H	-0.5825	-4.9356	3.0937
H	3.2493	-6.4154	1.7300
H	-4.3275	-0.0373	4.7098
H	-0.4983	-6.0744	1.0757
Co	0.6619	0.6065	0.4318
P	-1.0819	-0.5270	1.1388
H	5.1230	-2.1943	2.3296
H	-1.3702	1.6215	-3.9954
H	2.9416	-3.5505	-1.1078
H	3.0409	1.0080	4.6412
H	2.0875	-4.5385	1.0438
H	3.6160	-1.3098	3.9532
H	-0.7744	-2.5669	-0.9067
H	0.2232	-0.2800	3.6808
H	1.7997	-2.6818	-3.1246
H	-2.6150	1.7805	0.8913
H	-1.8190	3.6427	-2.6695
H	-2.8107	-1.8269	-0.9406
H	1.5472	-0.4853	-7.0123
H	1.4012	3.9161	3.9291
C	4.8833	-5.4433	2.4089
H	-0.8798	-2.6157	3.1279
H	-0.0535	5.1884	2.3527
C	3.6368	-5.5555	1.8458
H	1.7872	0.1808	-4.7994
C	-3.4031	-0.0794	4.4943
H	-1.6082	-1.7679	-3.8625
H	-1.8415	-2.4489	-6.0867
H	0.0333	5.4014	-1.9181
H	-0.4723	7.6557	-2.2011
C	-0.5807	-5.1281	1.0853
C	1.9577	1.1167	2.8197
C	4.7403	-3.0535	2.1984
C	1.1295	-1.0861	-1.8765
C	-0.2808	0.9124	-2.3025
C	-1.0748	1.7871	-3.1082
C	2.4237	-2.7558	-1.1557
C	3.4676	-3.1669	1.6182
C	2.5550	-0.9105	2.1497
C	-1.6393	-0.2264	2.8556
C	2.1774	-1.8574	-0.0709
C	1.1983	2.2830	2.5824
C	2.7743	0.5747	3.8382
C	2.9422	-4.4378	1.4451
C	3.1063	-0.6862	3.4482
C	-0.7156	3.6685	-0.0597
C	-0.7661	-3.0436	-0.0841
C	-0.7039	-0.2302	3.8829
C	1.7964	-2.2873	-2.2612
C	-3.0003	-0.1467	3.1653
C	-0.8880	-2.3421	1.1140
C	-0.7234	2.7328	-1.0963
C	0.2978	-0.2974	-2.6783
C	-0.1356	-1.5546	-6.7427
C	-0.1141	3.4093	1.1793
C	0.1184	-0.7298	-4.1019
C	-0.6332	-4.4278	-0.1008
C	-1.3232	2.8860	-2.3777
C	-2.5296	-0.1143	0.1393
C	-3.1571	-0.9553	-0.7874
C	-0.6494	-4.4565	2.2763
C	5.4438	-4.1824	2.5788
C	0.9083	-0.7622	-6.3661
C	1.0278	3.5875	3.1188
C	2.6967	-1.9571	1.2228
C	-0.8154	-3.0685	2.2952
*