! UKS B3LYP ma-def2-SVP OPT NumFreq
%basis
NewGTO Sn "ma-def2-TZVP" end
end 

%scf
  maxiter 200
end

%CPCM SMD TRUE
    SMDSOLVENT "ACETONITRILE"
END

%pal 
	nprocs 16
end
* xyz 0 1
Sn	-0.6011	-0.6103	0.7650
C	-0.1467	-1.4948	4.8483
C	-0.7911	-0.9855	3.7125
C	-4.2495	2.7145	0.6163
C	-5.4612	2.0507	0.6404
C	-6.6553	2.7646	0.6136
C	-6.6357	4.1684	0.5380
C	-5.3943	4.8213	0.4983
C	-4.2309	4.0944	0.4977
C	-7.8882	4.8801	0.5072
C	-1.4247	-2.1325	-0.4528
C	-0.6457	-2.7223	-1.4681
C	-1.1869	-3.6625	-2.2592
C	-2.5231	-4.0630	-2.1438
C	-3.2635	-3.4775	-1.1664
C	-2.7154	-2.5264	-0.3368
H	-3.1784	0.3248	4.9457
H	-4.3349	1.7547	3.3561
H	-2.5900	3.3740	-1.6213
H	-0.5365	2.9213	-2.8137
H	-0.4737	-1.4795	5.7199
H	-5.4782	1.1213	0.6774
H	-7.4684	2.3119	0.6441
C	1.1386	0.9494	-1.6222
H	-5.3604	5.7507	0.4764
H	-3.4159	4.5362	0.4175
C	1.8498	0.0309	-0.8246
N	-1.9965	0.1593	2.0713
N	-0.8616	1.2149	-0.1847
C	3.0817	-0.5915	-1.0675
C	3.4235	-1.4142	-0.0158
C	2.3802	-1.3185	0.8967
H	3.5351	2.1922	-8.4396
C	2.2972	-1.9475	2.1781
H	3.4849	0.8972	-7.5576
H	2.1730	1.7112	-7.8312
C	1.1896	-1.7929	3.0337
N	-8.9161	5.3655	0.4290
C	1.0684	-2.0302	4.4410
H	4.5471	5.6114	-3.5410
H	3.2474	5.0934	-2.8329
H	4.5900	4.2968	-2.6864
H	-0.6553	-4.0608	-2.9087
H	-2.8885	-4.7051	-2.7086
H	-4.1536	-3.7235	-1.0554
H	-3.2480	-2.1434	0.3193
C	1.7584	1.3433	-2.9356
C	1.5503	0.5381	-4.0308
C	2.0878	0.9211	-5.2432
C	2.8285	2.0855	-5.3658
C	3.0098	2.9082	-4.2734
C	2.4862	2.5099	-3.0431
C	0.5619	-1.3751	-4.9810
C	3.4089	-2.7941	2.6944
C	4.7263	-2.3414	2.7180
C	5.7251	-3.1249	3.2870
C	5.3926	-4.3590	3.8401
C	4.0652	-4.7986	3.8400
C	3.1259	-4.0021	3.2455
C	6.4469	-5.1316	4.5080
H	3.5971	-0.4675	-1.8319
H	4.1937	-1.9279	0.0675
H	1.6881	-2.4633	4.9817
H	1.9494	0.3901	-5.9930
N	1.4123	-0.3869	0.3784
H	2.6275	3.0345	-2.2861
H	-0.0058	-2.1107	-4.7410
N	0.0350	-1.1835	2.6309
N	7.1981	-5.8020	4.9928
H	0.1464	-0.8658	-5.6787
H	1.4077	-1.7102	-5.2863
H	4.9384	-1.5144	2.3507
H	6.6054	-2.8268	3.2999
H	3.8284	-5.6061	4.2347
H	2.2466	-4.3046	3.2172
H	0.2395	-2.4633	-1.5896
O	0.7651	-0.5502	-3.8545
O	3.3592	2.5513	-6.5316
O	3.7267	4.0596	-4.4535
C	3.1184	1.7765	-7.6815
C	4.0557	4.8300	-3.2810
C	-1.9356	-0.2215	3.3834
C	-2.9643	0.4227	4.0468
C	-3.6034	1.2149	3.1624
C	-2.9862	1.0952	1.8889
C	-3.0388	1.8505	0.7395
C	-2.0230	1.9615	-0.2471
C	-1.9447	2.7559	-1.3598
C	-0.8025	2.5165	-2.0207
C	-0.0794	1.5523	-1.3013
*