! UKS B3LYP ma-def2-SVP OPT NumFreq
%basis
NewGTO Sn "ma-def2-TZVP" end
end 

%scf
  maxiter 200
end

%CPCM SMD TRUE
    SMDSOLVENT "ACETONITRILE"
END

%pal 
	nprocs 16
end
* xyz 0 1
C	-2.4135	-0.7821	-3.9674
H	-2.7581	-1.1081	1.3869
C	-2.5948	0.5762	-3.9543
C	0.4904	-3.6121	-0.8380
C	-2.1665	1.0207	-2.7054
C	0.4267	4.8978	1.0790
C	-0.5725	5.7819	1.5637
C	-0.2608	7.0166	2.0737
C	-0.2562	-2.4828	-1.2676
C	-2.8359	-7.4333	-4.5330
C	1.0624	7.4513	2.0612
C	2.0547	6.6116	1.5229
C	1.7194	5.3505	1.0243
H	-2.1461	-0.0083	2.3209
C	1.4597	8.6729	2.6735
C	2.5609	-1.7699	2.4387
C	2.0871	-2.8203	3.2068
C	2.9477	-3.5265	4.0581
C	4.2839	-3.1973	4.1311
C	4.7692	-2.1403	3.3646
C	3.8941	-1.4225	2.5437
C	-1.8105	-1.1706	-2.7541
C	-1.5580	-3.6566	-3.0729
C	-0.6363	-4.5999	-3.4777
Sn	-1.0682	0.2787	-0.0383
C	-1.0407	-5.8413	-3.9834
H	2.6150	-4.2213	4.5772
C	-2.4187	-6.0652	-4.1268
C	-3.3540	-5.1482	-3.7742
C	-2.9204	-3.9249	-3.2686
C	-2.5155	-0.1812	1.4530
N	-3.1955	-8.4409	-4.9200
C	1.0344	-1.8423	0.5224
N	-1.2838	2.1747	-0.8674
N	0.6324	1.0947	0.8451
N	0.0808	-1.3896	-0.4261
N	-1.7271	-0.0511	-1.9889
H	-2.4128	4.0680	-3.1222
H	-1.2560	5.2666	-1.3320
H	5.6702	-1.9148	3.3986
H	1.9469	3.2794	2.7717
C	5.1517	-3.9381	4.9735
H	2.7233	0.9318	3.1874
H	1.8726	-3.7620	0.7424
H	0.4621	-4.4617	-1.2144
H	-2.6486	-1.3534	-4.6618
H	-2.9361	1.0997	-4.6423
C	-1.9174	2.2801	-2.0547
C	-2.0017	3.6877	-2.3792
H	-1.4627	5.5168	1.5341
C	-1.3561	4.3430	-1.3783
H	-0.9285	7.5583	2.4261
C	-0.8573	3.4358	-0.4170
H	2.9396	6.8981	1.4990
C	0.0498	3.5396	0.6178
H	2.3798	4.8122	0.6523
C	0.7323	2.4876	1.2199
H	1.1905	-3.0590	3.1579
C	1.6727	2.5221	2.3061
N	5.8604	-4.5456	5.6438
C	2.1113	1.1935	2.5378
H	-4.2608	-5.3309	-3.8655
C	1.4800	0.3473	1.6460
H	4.2168	-0.6981	2.0584
H	0.2708	-4.4090	-3.4142
C	1.6289	-1.0389	1.4898
C	1.2875	-3.2170	0.2682
H	-0.4188	-6.4932	-4.2162
N	1.7678	9.6442	3.2163
H	-3.5472	-3.2713	-3.0572
C	-1.2004	-2.3692	-2.3241
H	-3.2942	0.3638	1.3212
*