! UKS B3LYP ma-def2-SVP OPT NumFreq
%basis

end 

%scf
  maxiter 200
end

%CPCM SMD TRUE
    SMDSOLVENT "ACETONITRILE"
END

%pal 
	nprocs 16
end
* xyz 0 3
Mn	0.2024	1.0604	-0.2591
H	2.0290	-3.6070	0.2784
H	-2.8468	4.8081	-1.4893
H	-0.5152	5.7545	-1.6387
H	-3.3350	-2.4211	-0.1515
C	-1.7628	0.4926	3.2244
H	-4.6200	-0.1632	-0.5241
C	1.8826	0.0567	3.6927
H	2.8431	4.9848	-1.3199
C	-0.3041	0.6340	2.8907
C	2.2300	-1.4198	3.7667
O	0.1884	1.1330	1.9377
O	0.4152	0.0803	3.8705
C	1.9486	-2.6646	0.1311
F	7.9745	-0.0509	-2.2046
C	-1.9782	3.0293	-0.9350
C	-1.9940	4.3958	-1.3266
F	5.3628	0.4541	-2.4716
C	-4.4147	2.4674	-0.9312
F	-0.7348	-3.3184	2.4816
C	-1.5475	-6.2419	0.6060
C	-4.9919	2.7112	-2.1557
C	-1.6193	-1.2289	-0.2375
F	-1.3565	-5.9061	2.8670
C	-2.7348	0.6889	-0.5426
C	-2.9761	2.0633	-0.7929
C	-0.8813	-3.5559	0.1483
C	-5.2230	2.6209	0.1817
C	0.1596	3.7793	-1.0401
C	-0.5295	-2.1195	-0.0764
C	-0.6831	4.8435	-1.3895
C	-3.0364	-1.5140	-0.2632
C	1.5107	3.4652	-0.9419
C	-6.5626	2.9233	0.0768
C	-6.3400	3.0254	-2.2829
C	-3.6853	-0.3662	-0.4445
C	4.9637	0.3434	-0.1663
C	-7.1369	3.1314	-1.1655
C	-1.4743	-5.7157	-0.6937
C	3.5538	0.5672	-0.2696
C	2.8072	4.0542	-1.0985
C	5.5710	0.1667	1.0491
C	3.0943	-1.8871	0.0656
C	2.7009	-0.5519	-0.1414
C	-1.1498	-4.4159	-0.9063
C	3.0857	1.8748	-0.5452
C	3.7620	3.1039	-0.8518
C	6.9278	-0.0886	1.2060
C	0.8187	-1.7861	-0.0479
N	-0.6573	2.6849	-0.7831
N	1.2996	-0.5119	-0.2120
N	1.7433	2.1422	-0.6026
N	-1.4771	0.1356	-0.3998
C	7.7146	-0.1553	0.1016
F	-4.2654	2.5879	-3.2670
F	-4.7148	2.4348	1.4327
F	-6.8713	3.1954	-3.4887
F	-7.3293	3.0587	1.1657
F	-8.4176	3.4408	-1.2891
F	-1.8648	-7.5142	0.7847
F	-1.0938	-3.9408	-2.1311
F	-1.7872	-6.5046	-1.7281
H	4.6966	3.3160	-0.9118
H	3.9615	-2.2876	0.1565
H	-1.8720	0.0292	4.0560
H	-2.2051	0.0096	2.5250
H	-2.1447	1.3722	3.2957
H	2.1195	0.4494	2.8500
F	4.8359	0.2338	2.1834
H	2.3018	0.5436	4.4038
F	9.0714	-0.4082	0.2555
H	3.1747	-1.5533	3.6641
H	1.7634	-1.8674	3.0588
F	7.4619	-0.2727	2.4489
H	1.9472	-1.7732	4.6129
C	7.1905	0.0253	-1.1172
C	5.8395	0.2648	-1.2555
C	-0.9717	-4.1136	1.4116
C	-1.2675	-5.4094	1.6086
*