! UKS B3LYP ma-def2-SVP OPT NumFreq
%basis

end 

%scf
  maxiter 200
end

%CPCM SMD TRUE
    SMDSOLVENT "ACETONITRILE"
END

%pal 
	nprocs 16
end
* xyz 0 3
C	-1.3880	-7.2617	1.1685
Cr	0.5834	-0.1343	-0.9176
O	4.5758	-0.3007	0.0476
O	3.5629	-2.3393	-0.7942
H	0.5412	-3.6178	-4.3887
C	-0.0925	-6.8351	1.2546
C	-2.3683	-6.4337	0.7273
H	-0.0218	-4.9226	-2.3544
C	0.2014	-5.5387	0.8843
C	-1.5282	1.9519	2.8661
C	-0.8866	2.0333	4.0864
C	-1.4665	2.6774	5.1672
H	-0.3325	4.8352	-1.0061
C	-2.6992	3.2656	5.0269
C	-3.3363	3.2154	3.8297
H	0.8856	1.9107	-5.5394
H	1.0213	-0.5539	-5.7975
C	-2.7710	2.5385	2.7776
C	0.5412	-1.9099	-3.1221
N	-0.4436	-0.8460	0.5665
C	0.4212	-3.2702	-3.5122
N	-0.1542	1.6665	-0.6216
C	0.1004	-3.9817	-2.3950
C	-0.0185	-3.0870	-1.2992
F	-3.0278	-4.3591	-0.1124
F	-3.6246	-6.8861	0.6012
F	-1.6807	-8.5402	1.5125
F	0.8867	-7.6595	1.6724
F	1.4711	-5.1300	0.9501
C	-0.3527	3.9400	-0.6887
F	0.3292	1.5148	4.2334
C	0.0006	2.7733	-1.4427
F	-0.7991	2.7646	6.3291
F	-3.2555	3.9032	6.0591
C	0.3427	2.7420	-2.8029
F	-4.5589	3.7978	3.6750
C	0.5928	1.5558	-3.4694
C	0.8082	1.2722	-4.8412
F	-3.4776	2.4543	1.6254
C	0.8844	-0.0827	-4.9847
C	0.7218	-0.6523	-3.7105
C	1.2692	6.1818	-4.1142
C	0.3393	6.3686	-5.0820
F	2.2057	7.1339	-3.8850
C	0.3326	4.0203	-3.5817
C	1.2927	5.0248	-3.3818
F	2.2214	4.8670	-2.4222
C	-0.6017	5.4012	-5.3122
C	-0.6141	4.2643	-4.5635
N	0.2810	-1.8193	-1.7857
N	0.5670	0.3536	-2.7970
H	3.3128	-3.6178	1.3679
H	2.8103	-4.2312	3.5455
H	2.1317	-0.3977	4.5588
F	0.3606	7.4935	-5.8010
H	2.7340	0.2546	2.3147
F	-1.5013	5.5930	-6.2946
H	2.4604	-2.3242	6.3012
H	2.2809	-3.8074	5.7319
F	-1.5764	3.3652	-4.7811
H	-1.3936	-3.0658	2.6811
H	-1.6359	-0.7462	3.5568
H	-1.0100	4.1132	1.2655
C	3.0459	-1.6690	1.6879
H	1.0381	-2.7982	5.7400
C	3.0784	-2.9599	2.0126
C	2.7677	-3.3139	3.2974
C	2.3942	-2.3883	4.2364
C	2.3740	-1.0501	3.9108
C	2.7239	-0.6570	2.5762
C	2.0095	-2.8734	5.6259
C	-0.4290	-3.2651	0.0025
C	-0.6387	-2.1996	0.9021
C	-1.1704	-2.2673	2.2139
C	-1.3095	-0.9924	2.6999
C	-0.8653	-0.0986	1.6593
C	-0.9270	1.2750	1.6596
C	-0.5939	2.1111	0.6049
C	-0.7217	3.5475	0.5576
S	3.4827	-1.1809	0.0318
C	-0.7711	-4.6544	0.4494
C	-2.0531	-5.1381	0.3707
N	2.1541	-0.2547	-0.4182
*