! UKS B3LYP ma-def2-SVP OPT NumFreq
%basis

end 

%scf
  maxiter 200
end

%CPCM SMD TRUE
    SMDSOLVENT "ACETONITRILE"
END

%pal 
	nprocs 16
end
* xyz 0 1
H	2.1589	2.5270	4.7116
C	-2.9407	3.8909	0.5461
H	-4.8799	-0.4489	-0.8336
C	-3.1727	4.6400	-0.5632
C	-3.9390	5.7572	-0.5703
C	-4.5419	6.2149	0.5554
C	-4.3174	5.4722	1.6718
C	-3.5527	4.3498	1.6703
C	-2.0722	2.6957	0.5054
C	-0.7032	2.8785	0.7299
C	-0.0730	4.1133	1.0424
C	1.2407	3.8820	1.0650
C	1.2572	1.3381	6.0418
C	0.3872	0.2797	6.0911
C	1.4570	2.4861	0.7678
C	-0.1087	-0.3236	4.9433
C	2.6785	1.8725	0.6346
H	-4.5266	1.0275	3.4713
Co	-0.0989	0.0899	0.2659
P	-0.3100	-0.7902	2.2892
H	1.4386	-4.1266	-1.4902
H	4.0273	-2.2679	-0.5349
H	-1.3686	-3.5194	-5.1046
C	3.8533	2.7954	0.6075
H	-0.1952	-3.6485	-4.0721
C	4.4826	3.2211	1.7298
H	0.3053	-5.7667	-4.7927
H	0.2394	-4.8501	-6.0615
C	5.5165	4.0993	1.7366
C	-4.0960	-0.0156	-0.5817
H	-1.7957	-5.6669	-6.6234
C	-4.0083	1.2423	-0.1974
C	5.3381	4.2143	-0.6433
C	4.3135	3.3310	-0.5529
H	-1.7098	-7.2623	-4.3020
H	-2.9101	-7.1907	-5.3066
C	5.9246	4.5505	0.5270
H	-3.3203	-5.9852	-3.3483
H	-0.8318	-6.8860	-6.3881
H	-3.4448	-5.0943	-4.6312
H	8.1331	0.4766	-0.6516
C	8.0238	2.0962	-1.8349
H	8.4054	0.7450	-3.3049
F	-2.5951	4.2795	-1.7177
F	-4.0929	6.4795	-1.6842
H	6.2897	0.6044	-4.1796
F	-5.2922	7.2567	0.5466
F	-4.8196	5.9221	2.8172
H	6.5192	-0.6304	-2.2648
C	-4.9496	-2.9697	-3.5586
F	-3.3842	3.6557	2.7740
C	-5.7139	-3.8543	-2.8760
H	1.3038	1.5555	2.8224
C	-5.4371	-4.0755	-1.5676
H	5.0582	-0.0641	-2.3463
C	1.5866	1.7894	4.7916
H	-0.9398	-3.4874	1.4711
H	0.1777	-5.5378	1.5456
H	2.2462	-5.6414	2.6010
H	3.3478	-3.7035	3.2266
H	2.1692	-1.7029	3.2533
H	-2.2274	-2.9723	2.8736
H	-2.3001	1.0083	2.8299
C	1.0211	-2.2449	-0.7228
C	0.7985	-3.4836	-1.2860
C	-0.5588	-3.5808	-1.4833
C	-1.1623	-2.3766	-1.0298
C	-2.4909	-1.8704	-1.0279
N	0.2286	1.8853	0.5966
C	-2.8064	-0.5998	-0.5508
C	-2.6221	1.5069	0.1074
C	2.8330	0.5328	0.3215
C	3.9871	-0.3121	0.0688
C	3.5116	-1.5265	-0.3142
C	2.0980	-1.4677	-0.3185
C	-3.5750	-2.5990	-1.6577
C	-4.6757	-0.9922	3.5807
C	-3.8959	-2.3715	-2.9588
C	-4.0669	0.2273	3.3619
F	4.0743	2.7903	2.9195
F	6.0981	4.4994	2.8542
C	-4.3954	-3.4350	-0.9768
F	6.9523	5.4389	0.4946
F	5.7482	4.7090	-1.7935
F	3.7542	2.9744	-1.6872
C	-0.9011	-4.1381	-4.5216
C	-0.2921	-5.2464	-5.3551
C	-1.2824	-6.1450	-5.9528
C	-2.2064	-6.6704	-4.8883
F	-5.2274	-2.7639	-4.8537
C	-2.8201	-5.5890	-4.0789
F	-6.7709	-4.4334	-3.4893
C	7.5589	1.2551	-0.7265
F	-6.1893	-4.9230	-0.8795
C	7.8146	1.5056	-3.1878
C	6.3956	1.0697	-3.3358
C	5.9899	0.1813	-2.2321
C	0.3118	0.0739	3.6915
C	1.0911	1.1873	3.6496
C	0.4933	-2.3932	2.3882
C	-0.0963	-3.5411	1.8591
C	0.5677	-4.7721	1.9020
C	1.8262	-4.8194	2.4944
C	2.4673	-3.6715	2.9277
H	1.6010	1.7255	6.8129
C	1.7693	-2.4699	2.9092
C	-2.0264	-0.9807	2.7836
C	-2.6741	-2.1695	3.0224
C	-3.9846	-2.1900	3.4783
C	-2.7369	0.1992	2.9717
S	-1.2283	-5.0732	-2.0721
S	5.6734	-0.0872	0.3443
N	-0.1570	-1.5610	-0.5683
N	-1.9052	0.3590	-0.1228
N	1.7298	-0.2086	0.1118
N	-1.8307	-4.6596	-3.5321
N	6.1631	0.8153	-0.9272
O	-0.1189	-5.9635	-2.1880
O	-2.2990	-5.4739	-1.2740
O	6.2661	-1.3680	0.2980
O	5.8876	0.6913	1.5064
F	-3.1557	-1.5815	-3.6926
F	-4.1500	-3.7150	0.3129
H	-5.5784	-1.0114	3.8052
H	-4.7104	1.8495	-0.1336
H	0.1246	-0.0463	6.9220
H	-0.7277	-1.0088	5.0205
H	-4.3922	-2.9927	3.7125
H	-0.4942	4.9276	1.2001
H	1.9025	4.5109	1.2423
H	7.6226	1.7536	0.1045
H	7.5604	2.9475	-1.7932
H	8.9706	2.2713	-1.7163
H	8.0279	2.1627	-3.8667
H	5.8195	1.8507	-3.3505
*