! UKS B3LYP ma-def2-SVP OPT NumFreq
%basis
NewGTO Au "ma-def2-TZVP" end
end 

%scf
  maxiter 200
end

%CPCM SMD TRUE
    SMDSOLVENT "ACETONITRILE"
END

%pal 
	nprocs 16
end
* xyz 0 3
H	-0.7221	-8.7298	-4.5587
H	-1.7107	-7.9688	-5.5601
H	-2.3016	-8.7643	-4.3042
Ni	-0.4788	-1.0168	0.9333
P	0.7549	1.4144	-1.3294
H	-0.7238	-1.0222	5.9285
H	2.3151	2.5674	3.0821
H	2.3951	3.0981	0.6431
H	0.9342	-0.3591	-3.8498
H	0.0119	-2.6903	-3.7821
H	-0.9343	3.3502	5.5651
H	-0.7245	2.5052	4.2228
H	0.1832	3.7923	4.5093
H	3.4981	-1.3653	5.6276
H	2.9038	-0.9520	4.2005
H	2.0092	-1.7924	5.2262
H	1.3826	-4.6843	-1.3795
H	1.4832	-6.2753	-1.2446
H	0.5610	-5.4430	-0.2351
H	-3.0846	-6.0324	-4.5140
H	3.5841	4.2137	-4.0973
H	5.4115	1.0201	-2.5006
H	0.8550	4.3990	-2.3841
C	-1.5550	-8.2175	-4.6257
H	0.4254	3.4964	-3.6331
H	6.7155	2.9818	-3.4768
H	5.9052	3.9823	-4.4274
H	6.1222	2.4603	-4.8683
H	2.8280	-0.7206	-1.4304
H	3.3151	0.1705	-0.1923
H	4.3905	-0.4823	-1.1818
Au	-1.1640	2.5089	-1.6087
C	-1.6351	-2.1826	3.1469
C	-1.7016	-2.2425	4.5634
C	-0.8920	-1.2375	5.0190
C	-0.3432	-0.5698	3.8806
C	0.6042	0.4353	3.7950
C	1.0072	0.9683	2.5611
C	1.8639	2.0988	2.3891
C	1.9199	2.3866	1.0563
C	1.1301	1.4104	0.4193
C	0.4179	-0.2808	-1.7923
C	0.5584	-0.8000	-3.0974
C	0.0406	-2.0733	-3.0600
C	-0.4383	-2.2955	-1.7529
C	-1.1260	-3.4502	-1.3257
C	1.1914	0.9591	5.0720
C	0.7346	2.1610	5.6223
C	1.2491	2.5616	6.8588
C	2.6501	0.6517	6.9602
C	2.1617	0.1912	5.7355
C	-0.2732	3.0279	4.9186
C	2.6893	-1.0924	5.1452
C	-0.2818	-5.6548	-2.0999
H	0.2330	-7.4968	-2.7892
C	0.8895	-5.5005	-1.1571
C	2.2805	1.9273	-2.1737
H	1.4330	4.7225	-3.8403
C	2.3238	3.0924	-2.9710
C	3.5410	3.4285	-3.5651
C	4.6820	2.6744	-3.4146
C	4.6280	1.5428	-2.6188
C	3.4502	1.1537	-1.9881
C	1.1571	4.0076	-3.2292
C	5.9695	3.0590	-4.1078
C	3.5007	-0.0770	-1.1231
N	-0.8511	-1.1730	2.7526
N	0.5671	0.5451	1.2966
N	-0.1795	-1.1631	-0.9614
N	-1.4977	-2.5751	0.8835
Cl	-3.2144	3.4846	-1.7702
H	-2.2057	-2.8550	5.0873
H	0.9348	3.3721	7.2447
H	3.3153	0.1452	7.4121
H	-2.6466	-5.4510	0.1332
H	-3.0532	-4.8224	2.5244
H	3.1370	3.2121	8.7409
H	3.4381	1.7016	9.1758
H	2.0255	2.3671	9.5219
H	-2.8564	-2.8849	-3.6908
H	-3.6573	-3.4375	-2.4195
H	-4.0164	-3.9705	-3.8848
C	-1.6760	-3.5561	-0.0600
C	-2.3807	-4.6429	0.5570
C	-2.6001	-4.3055	1.8685
C	-2.0080	-3.0184	2.0482
C	2.1899	1.8283	7.5356
C	2.7475	2.3210	8.8616
C	-1.2282	-4.6371	-2.2324
C	-0.4112	-6.8049	-2.8815
C	-1.4465	-6.9695	-3.7827
C	-2.3680	-5.9391	-3.8967
C	-2.2826	-4.7775	-3.1428
C	-3.2913	-3.6712	-3.2979
*