! UKS B3LYP ma-def2-SVP OPT NumFreq
%basis

end 

%scf
  maxiter 200
end

%CPCM SMD TRUE
    SMDSOLVENT "ACETONITRILE"
END

%pal 
	nprocs 16
end
* xyz 0 3
C	2.7877	-0.0508	5.3466
Cr	0.8353	-0.2612	-0.1299
C	-0.4169	-2.9997	-0.5828
C	1.8973	2.5817	0.2613
H	4.8844	-1.6118	-2.5338
C	-1.0080	-4.2040	-0.3060
C	2.4146	3.8376	-0.0670
H	3.1640	-1.7027	-4.3381
C	2.5964	4.1558	-1.3945
C	-1.0386	-4.6428	0.9997
H	-2.3516	-0.4747	-4.0275
C	-0.4540	-3.8614	1.9659
C	2.2495	3.2197	-2.3381
H	-3.7215	0.3242	-2.1266
C	0.1085	-2.6518	1.6176
C	1.7096	2.0162	-1.9418
H	-2.5974	1.2454	3.1897
H	-0.5023	1.2366	4.4999
H	4.7676	-0.1268	3.0151
H	5.5895	-0.9825	0.8179
H	-0.3774	-2.7217	-1.4902
H	1.7902	2.3597	1.1784
H	-1.3887	-4.7267	-1.0018
H	2.6362	4.4617	0.6139
H	-1.4532	-5.4661	1.2268
H	2.9505	4.9983	-1.6507
H	-0.4379	-4.1516	2.8707
H	2.3824	3.4024	-3.2617
H	0.5130	-2.1265	2.2965
H	1.4437	1.3983	-2.6136
N	1.9489	-0.9921	-1.5254
N	-0.6575	-0.0718	-1.3595
N	-0.0753	0.4273	1.4524
N	2.4569	-0.5149	0.8784
N	0.1113	-2.1825	0.3537
N	1.5428	1.6754	-0.6624
F	-3.7304	2.8465	-0.6566
F	0.5581	-3.6202	-4.3275
F	-6.3174	3.2870	-0.1762
F	0.1302	-4.3579	-6.8700
C	3.2740	-1.1477	-1.2167
F	-0.4310	-2.4849	-8.7471
C	3.9537	-1.4588	-2.4296
F	-0.5773	0.1371	-8.0589
C	3.0021	-1.4946	-3.4238
F	-0.0878	0.8949	-5.5394
C	1.7406	-1.1704	-2.8616
F	1.8784	3.0895	3.8573
C	0.4445	-0.9396	-3.4040
F	2.6922	3.9180	6.2707
C	-0.6752	-0.4397	-2.7082
F	3.5839	2.1228	8.1074
F	-7.7162	1.6247	1.4372
C	-2.0333	-0.2955	-3.1499
F	-6.4838	-0.5280	2.5422
C	-2.7896	0.1406	-2.1042
F	-3.8984	-1.0410	1.9867
C	-1.9221	0.2743	-0.9628
C	-2.2686	0.6065	0.3911
C	-1.4181	0.6764	1.5053
C	-1.7348	1.0321	2.8576
F	3.6334	-0.5367	7.4939
C	-0.5841	1.0137	3.5802
F	2.7922	-1.3784	5.0897
C	0.4852	0.5977	2.7135
C	1.8393	0.3897	3.0262
C	2.8248	-0.1434	2.1392
C	4.2361	-0.3060	2.2465
C	4.6862	-0.7718	1.0316
C	3.5980	-0.8837	0.1677
C	0.2450	-1.3338	-4.8278
C	-4.3822	1.9751	0.1392
C	0.3075	-2.6579	-5.2391
C	-5.7239	2.1936	0.4052
C	0.0790	-3.0565	-6.5373
C	-0.2034	-2.1099	-7.4686
C	-0.2936	-0.8007	-7.1235
C	-0.0575	-0.4161	-5.8291
C	2.3103	2.1508	4.7349
C	-6.4370	1.4009	1.1801
C	2.7329	2.6001	5.9620
C	-5.7964	0.2997	1.7413
C	-4.4588	0.0637	1.4462
C	-3.7134	0.8809	0.6396
C	2.3115	0.8197	4.3811
C	3.1749	1.7042	6.8973
C	3.2245	0.3775	6.5770
*