! UKS B3LYP ma-def2-SVP OPT NumFreq
%basis

end 

%scf
  maxiter 200
end

%CPCM SMD TRUE
    SMDSOLVENT "ACETONITRILE"
END

%pal 
	nprocs 16
end
* xyz 0 3
H	6.9859	-2.7275	2.4724
C	-4.3738	-3.1622	5.9082
Co	-0.0864	-0.7925	0.0107
C	-1.4477	2.2029	-0.5080
P	-0.3301	1.3317	0.6513
C	2.0244	-0.4569	-2.0223
C	-0.9378	3.0905	-1.4549
H	0.9648	3.1657	2.5483
C	-3.4924	-2.1051	6.0642
H	5.7623	0.6466	4.3249
C	3.4774	-0.4086	-2.0899
C	-1.7668	3.6517	-2.4115
H	0.5892	0.6162	3.1971
C	-2.6013	-1.7396	5.0592
H	3.7801	0.5896	3.0963
C	3.9471	-0.7065	-0.8544
C	-3.1227	3.3367	-2.4184
C	-5.3950	-3.5243	6.9532
C	2.8199	-0.9162	0.0235
C	-3.6423	2.4878	-1.4742
C	1.5357	1.7002	-4.6671
H	8.6036	-0.7745	3.6719
H	-3.4050	2.8465	4.1399
C	2.8463	-1.1807	1.3887
C	-2.8092	1.9126	-0.5080
C	2.0798	2.2963	-0.3920
N	-0.7987	-0.6381	-1.7242
C	1.7324	-1.4805	2.1645
H	-4.5877	-2.0284	1.8208
C	3.2531	3.0517	-0.3934
H	-2.7244	2.5729	1.9147
C	1.7209	-1.8935	3.5436
H	-0.0133	3.3139	-1.4425
H	-4.8777	-1.4052	-0.6060
C	3.5819	3.8169	0.7151
H	-4.8629	-4.6539	4.5996
N	0.4308	-1.4512	1.7003
C	2.7235	3.8648	1.7849
H	-1.4116	4.2486	-3.0603
H	-3.4943	-1.6180	6.8786
N	-1.8527	-1.2874	0.3672
H	-2.0029	-1.0139	5.1987
H	-3.6914	3.7128	-3.0810
N	-3.7769	-0.4177	-3.7098
H	-4.5728	2.2918	-1.4742
H	-5.1938	-4.4145	7.3107
H	-3.1707	1.3267	0.1450
N	-1.2175	0.3475	-5.2153
H	1.1656	2.2880	-4.0183
H	-5.3686	-2.8643	7.6779
C	-2.1346	-0.7475	-1.8428
C	-0.6039	1.2750	4.7003
O	-4.7219	-0.6533	-2.9568
H	-6.2872	-3.5292	6.5487
C	-2.4838	-0.3945	-3.1556
C	-2.5820	-2.4300	3.8500
H	1.8723	1.7560	-1.1457
C	-1.8107	1.9255	4.9819
O	-3.9067	-0.2255	-4.9248
C	-3.4273	-3.5330	3.7064
C	-1.3086	-0.0898	-3.8237
O	-0.8144	-0.4303	-6.0482
H	3.8247	3.0403	-1.1512
C	-0.2390	-0.2509	-2.9112
C	1.6900	0.3608	-4.3496
O	-1.5894	1.4999	-5.4374
H	4.3975	4.3056	0.7344
C	1.1656	-0.1453	-3.0576
H	2.9396	4.4120	2.5303
C	2.2620	-0.4865	-5.2966
C	2.6480	0.0143	-6.5390
H	3.9995	-0.2084	-2.8574
C	2.4851	1.3635	-6.8661
H	4.8623	-0.7669	-0.6060
H	-0.0505	0.9695	5.4099
C	1.9061	2.2089	-5.9040
H	8.0421	-1.8802	4.6824
C	1.2054	2.3188	0.6930
H	2.4822	-1.9904	4.1054
H	-2.0922	2.0410	5.8820
H	0.1318	-2.4083	4.7459
C	2.8336	1.9141	-8.2148
H	7.8152	-0.3261	4.9888
C	4.1594	-1.1328	2.0886
H	-3.4013	-4.0422	2.9058
C	5.1297	-2.1146	1.9119
N	1.6506	-0.7912	-0.7103
C	0.4349	-2.1158	3.8942
H	2.3892	-1.4052	-5.0951
C	6.3272	-2.0580	2.6145
C	-0.3896	-1.8342	2.7540
C	1.5435	3.1258	1.7960
H	3.0289	-0.5769	-7.1781
C	6.5772	-1.0405	3.5201
C	-1.0051	1.5524	2.3288
C	-1.7980	-1.9680	2.6836
C	5.6110	-0.0579	3.7037
H	1.7681	3.1277	-6.1000
C	-2.4965	-1.6868	1.5061
C	-0.2189	1.0786	3.3848
C	4.4224	-0.1001	2.9790
C	-3.9000	-1.7803	1.2134
C	7.8710	-1.0021	4.2821
H	2.4041	1.3723	-8.9091
C	-4.0633	-1.4409	-0.1214
H	2.5194	2.8389	-8.2810
C	-2.7627	-1.1579	-0.6170
C	-2.5887	2.4001	3.9480
H	3.8061	1.8890	-8.3363
C	-2.1904	2.2295	2.6201
C	-4.3024	-3.8947	4.7169
H	4.9702	-2.8301	1.3073
*