! UKS B3LYP ma-def2-SVP OPT NumFreq
%basis
NewGTO Mo "ma-def2-TZVP" end
end 

%scf
  maxiter 200
end

%CPCM SMD TRUE
    SMDSOLVENT "ACETONITRILE"
END

%pal 
	nprocs 16
end
* xyz 0 1
F	4.4680	7.0285	0.6275
H	1.4357	-0.5860	-5.5167
C	1.7896	1.1701	-3.0414
C	-2.3638	-3.1187	-3.1866
F	2.6827	5.3757	-0.5260
C	-3.1670	-2.8561	-4.2924
C	-3.8173	-3.8419	-5.0031
C	-3.6989	-5.1497	-4.6095
C	-2.9411	-5.4630	-3.4992
C	-2.2726	-4.4587	-2.8210
C	-1.3361	-0.7829	3.4443
C	5.5005	3.8625	2.0322
C	1.6116	2.1670	2.5171
C	-1.0305	-2.0424	3.9522
C	1.5598	2.0546	1.0862
C	-1.3836	-2.4412	5.2288
C	2.4437	2.6171	0.1512
C	-2.0486	-1.5508	6.0542
C	2.4219	2.3030	-1.2129
C	-2.3590	-0.2876	5.5947
C	3.3770	2.5497	-2.2370
C	-2.0140	0.0666	4.3130
C	2.9890	1.8525	-3.3643
H	3.4415	1.8339	-4.1989
Mo	-0.3575	0.8814	-1.0380
H	-0.4042	-2.2270	-5.1397
C	3.5302	3.5058	0.6575
H	-3.2543	-3.2747	-0.4878
C	4.5404	3.0302	1.4917
H	-2.8521	-2.4809	1.8261
H	0.5275	1.1837	3.9718
C	5.4547	5.2161	1.7722
N	-0.0443	-0.2188	-2.7207
C	4.5030	5.7127	0.9017
N	-1.1653	-0.8561	-0.3452
C	3.5818	4.8607	0.3391
N	0.5325	1.1490	0.7775
N	1.4441	1.5026	-1.7474
F	-3.3561	-1.5821	-4.6899
F	-4.5891	-3.5131	-6.0468
F	-4.3216	-6.1247	-5.2927
F	-2.8465	-6.7369	-3.0793
F	6.4652	3.3697	2.8174
F	-1.4971	-4.8273	-1.7868
F	6.3228	6.0449	2.3581
F	-0.3459	-2.9216	3.2033
F	-1.0661	-3.6547	5.6776
F	-2.4013	-1.9140	7.2973
F	-2.9975	0.5640	6.4067
H	2.1901	2.7380	3.0099
F	-2.3681	1.2946	3.8904
C	0.9517	0.1860	-3.5980
H	4.1480	3.0984	-2.1589
C	0.8846	-0.6442	-4.7448
F	4.5995	1.7238	1.7924
C	-0.1292	-1.5495	-4.5326
C	-0.6994	-1.3007	-3.2501
O	-1.5529	2.0432	-1.2755
C	-1.6332	-2.0239	-2.4926
C	-1.8383	-1.8158	-1.1152
C	-2.6599	-2.5787	-0.2332
C	-2.4442	-2.1366	1.0406
C	-1.4995	-1.0651	0.9864
C	-0.9438	-0.3570	2.0646
C	0.0176	0.6592	1.9788
C	0.6923	1.3162	3.0456
*