! UKS B3LYP ma-def2-SVP OPT NumFreq
%basis

end 

%scf
  maxiter 200
end

%CPCM SMD TRUE
    SMDSOLVENT "ACETONITRILE"
END

%pal 
	nprocs 16
end
* xyz 0 1
C	0.8504	-3.6892	2.6900
C	-0.5274	-3.8525	2.6119
C	-1.0373	-2.7134	1.9600
H	-3.0516	2.8018	-2.1226
C	2.9757	3.3796	-1.9765
C	3.5772	4.5254	-2.4859
C	3.0817	5.7613	-2.2369
C	1.8220	3.4840	-1.1564
H	-5.2817	-0.8524	-1.8100
C	3.7628	7.0079	-2.8130
H	-7.3178	-0.1876	-2.6918
C	3.6495	-2.3128	2.4625
H	-6.7440	3.5201	-1.2489
C	4.8140	-2.3373	1.6793
C	6.0219	-2.7554	2.1986
C	1.9860	5.8742	-1.4937
H	-9.2802	1.5837	-2.3036
C	6.1267	-3.1855	3.5178
C	1.3495	4.7440	-0.9441
H	-8.7571	3.0873	-2.4393
C	4.9598	-3.1877	4.2890
H	-8.5413	2.0567	-3.6421
C	3.7580	-2.7656	3.7772
C	7.4539	-3.6169	4.0803
C	-0.1634	-1.6359	-1.1662
C	-1.1350	-1.6234	-2.1655
C	1.1120	-3.2185	-2.4337
C	0.9565	-2.4457	-1.3011
H	-1.9125	-1.0889	-2.0657
H	-1.6183	-2.3694	-3.9922
H	0.2863	-3.7169	-4.2226
Fe	-0.3709	-0.4957	0.4482
H	3.8123	2.2441	0.3956
H	4.4319	0.1872	1.6244
H	-4.0425	-3.3198	1.9006
H	-5.2251	-1.5485	0.6154
H	-0.7432	3.6852	-2.2030
H	1.4676	-4.3058	3.0689
H	-1.0277	-4.5914	2.9362
H	3.3373	2.5252	-2.1791
H	4.3559	4.4393	-3.0211
H	-4.7284	2.8598	-0.3183
H	3.2011	7.7945	-2.6459
H	4.6344	7.1342	-2.3823
H	3.8882	6.8932	-3.7778
H	4.7694	-2.0571	0.7725
H	1.6231	6.7371	-1.3277
H	6.7946	-2.7487	1.6452
H	4.9996	-3.4893	5.1890
H	0.5708	4.8631	-0.4128
H	2.9853	-2.7799	4.3293
H	8.1760	-3.2707	3.5166
H	7.5516	-3.2662	4.9895
H	7.4961	-4.5958	4.1014
N	-2.1138	-1.0461	0.7843
H	1.8775	-3.7749	-2.5234
H	1.6135	-2.4676	-0.6161
N	-1.0156	1.0974	-0.3326
N	1.3917	0.1577	0.6361
N	0.0030	-1.8661	1.6598
C	-4.7706	0.9390	-0.9850
C	-5.5735	0.0440	-1.6904
C	-6.7849	0.4428	-2.2212
C	-7.2406	1.7457	-2.0772
C	-6.4510	2.6229	-1.3651
C	-5.2420	2.2329	-0.8159
C	-8.5726	2.1544	-2.6664
C	-2.2669	-2.2191	1.4795
C	-0.9638	-2.3908	-3.3047
C	-3.6459	-2.5631	1.4854
C	0.1657	-3.1904	-3.4404
C	-4.2896	-1.5859	0.7765
C	-3.3277	-0.6342	0.3184
C	-3.4422	0.5316	-0.4550
C	-2.3247	1.3178	-0.7942
C	3.2457	1.4998	0.5678
C	-2.3030	2.4480	-1.6576
C	3.5808	0.3741	1.2457
C	-1.0373	2.9334	-1.7044
C	-0.2284	2.1089	-0.8682
C	1.1410	2.2780	-0.6081
C	1.8799	1.3655	0.1587
C	2.4416	-0.4874	1.2962
C	2.3850	-1.7443	1.9267
C	1.1723	-2.4283	2.0965
*