! UKS B3LYP ma-def2-SVP OPT NumFreq
%basis
NewGTO Ru "ma-def2-TZVP" end
end 

%scf
  maxiter 200
end

%CPCM SMD TRUE
    SMDSOLVENT "ACETONITRILE"
END

%pal 
	nprocs 16
end
* xyz 0 1
H	-5.4868	-2.0826	0.5529
N	-1.2994	-2.0784	1.4715
C	3.1857	-0.6273	0.4805
N	-0.9722	0.7509	2.0733
H	-5.6896	0.0260	-0.7611
C	2.9338	-1.6795	1.3273
C	1.5304	-1.8508	1.3913
H	-1.6331	3.0828	-2.8675
C	0.8826	-2.8497	2.1606
H	0.7845	2.8103	-2.8062
F	-7.6410	4.6955	-4.3365
C	-0.5012	-2.9789	2.1460
H	4.0395	-0.2761	0.2533
F	-7.1339	6.0807	-2.8521
C	-1.3975	-3.9805	2.5994
H	3.5832	-2.1978	1.7878
F	-5.9349	5.8980	-4.5743
C	-2.6799	-3.7150	2.1904
H	-1.1440	-4.7363	3.1174
H	-3.4569	-4.2362	2.3579
C	-2.6047	-2.5181	1.4758
C	-4.0637	2.3144	-1.8259
H	-5.1056	1.0037	-2.9909
F	5.2303	-6.4094	5.1998
F	6.4325	2.9423	-4.7018
C	-5.0222	1.9211	-2.7573
H	-6.4796	2.5532	-3.9774
C	-5.8433	2.8440	-3.3334
F	3.5799	-7.7271	5.2415
F	7.3371	3.3525	-2.8660
F	6.0040	4.7391	-3.6963
H	-3.4127	3.9636	-0.8244
C	-5.7828	4.1926	-3.0153
H	-4.8145	5.4864	-1.8035
H	2.6083	3.4017	-0.7773
C	-4.0326	3.6672	-1.4807
C	-4.8668	4.5733	-2.0616
C	2.9125	1.5375	-1.5360
H	4.3994	4.4286	-1.8231
H	5.4200	0.9672	-3.5509
C	3.1726	2.8918	-1.3473
H	3.6666	-0.1201	-2.4596
H	2.9289	-4.4329	1.5258
C	4.2325	3.5057	-1.9714
H	4.1900	-5.8967	2.9060
C	5.0389	2.7976	-2.8000
H	1.8853	-4.8964	6.0620
C	4.8377	1.4589	-2.9825
H	0.6602	-3.4523	4.7259
C	3.7893	0.8155	-2.3452
Ru	-0.9145	-0.2650	0.8185
C	1.6694	-3.7740	2.9890
F	3.7778	-6.2760	6.7554
C	-3.4732	-1.6401	0.7144
C	2.7179	-4.5171	2.4486
C	-4.7769	-1.4884	0.3405
C	3.4670	-5.3951	3.2654
C	-4.8897	-0.3351	-0.3945
C	1.7332	0.8955	-0.9268
C	3.1252	-5.5047	4.5887
C	-3.5763	0.2212	-0.5075
C	2.0980	-4.7981	5.1418
N	-0.7432	0.9040	-0.7848
C	-3.1215	1.3549	-1.2196
C	1.3783	-3.9426	4.3443
C	-1.7819	1.5909	-1.3737
C	-1.1653	2.4788	-2.3027
C	-6.5859	5.1914	-3.6937
C	0.1580	2.3425	-2.2688
C	3.9185	-6.4502	5.4322
N	-2.7322	-0.5444	0.2779
C	0.4623	1.3591	-1.2705
N	0.9072	-0.8478	0.6424
C	6.1496	3.4495	-3.4764
C	1.9377	-0.1651	0.0103
*