! UKS B3LYP ma-def2-SVP OPT NumFreq
%basis

end 

%scf
  maxiter 200
end

%CPCM SMD TRUE
    SMDSOLVENT "ACETONITRILE"
END

%pal 
	nprocs 16
end
* xyz 0 3
Cu	-0.2259	1.8226	0.1820
H	-1.8558	3.4958	-4.2325
H	-1.2091	1.1390	-4.6487
H	-1.3409	5.7385	2.8923
H	-2.0655	6.4804	0.6096
H	0.7886	-2.7835	-1.4524
F	-0.8881	-2.7379	3.0575
F	-0.3093	-4.4780	5.0201
H	-3.2262	5.7508	-1.5134
H	1.2089	-2.9166	0.9929
H	-3.6187	4.2019	-1.4196
H	0.5538	0.8782	5.0467
C	2.4930	-2.2497	5.2874
H	-3.1798	4.8320	-2.8230
H	-0.2126	3.2060	4.8656
H	0.2912	5.3759	-2.0127
C	2.1998	-1.3555	4.2826
H	-0.8649	6.4614	-1.8043
H	-0.7990	5.6143	-3.1603
C	-0.7062	3.9524	1.9449
C	-1.5580	4.4974	-1.5541
C	-1.2592	5.2438	2.0848
C	-1.2462	3.1601	-2.2159
C	-1.6582	5.6523	0.8329
C	-1.5014	2.8881	-3.5936
C	-1.3381	4.5813	-0.0697
C	-1.1423	1.6000	-3.8213
C	-0.6478	1.0651	-2.6013
C	-0.1848	-0.2252	-2.3387
C	0.2690	-0.7534	-1.1100
C	0.6883	-2.0773	-0.8251
F	3.0410	-0.3312	4.1076
F	3.5921	-2.0697	6.0452
F	1.9405	-4.1877	6.4887
C	0.9212	-2.1489	0.5135
C	0.6531	-0.8631	1.0651
C	0.7310	-0.4737	2.4415
C	0.4610	0.8021	2.8928
C	-3.0305	4.8533	-1.8548
C	0.3608	1.3426	4.2414
C	-0.6487	5.5885	-2.1919
C	-0.0511	2.6095	4.1448
C	-0.2311	-1.1664	-3.5072
C	-0.2070	2.9038	2.7312
C	0.5844	-0.9907	-4.6179
C	0.4777	-1.7785	-5.7408
C	-0.4241	-2.8014	-5.7650
C	-1.2406	-3.0218	-4.6830
C	-1.1414	-2.2139	-3.5758
C	1.0753	-1.4965	3.4683
C	1.6682	-3.3095	5.5288
C	0.5269	-3.4717	4.7595
N	-0.7313	2.0676	-1.6385
C	0.2569	-2.5731	3.7563
N	-0.7776	3.6082	0.6076
N	0.2847	-0.0201	0.0489
N	0.1493	1.7981	2.0417
F	1.4915	-0.0024	-4.6257
F	1.2467	-1.5305	-6.8151
F	-0.5437	-3.5612	-6.8630
F	-2.1586	-4.0064	-4.7369
F	-1.9742	-2.4395	-2.5520
*