! UKS B3LYP ma-def2-SVP OPT NumFreq
%basis
NewGTO Ir "ma-def2-TZVP" end
end 

%scf
  maxiter 200
end

%CPCM SMD TRUE
    SMDSOLVENT "ACETONITRILE"
END

%pal 
	nprocs 16
end
* xyz 0 1
H	-6.2348	-3.8648	1.9013
C	7.1481	3.2756	-4.8597
C	-2.6419	5.1772	1.6896
N	8.0191	3.8472	-5.2996
H	-1.8187	-4.2143	3.3096
H	-4.4890	-3.0294	0.5879
H	2.9431	0.2088	0.4253
H	3.6441	-0.9871	4.1666
H	-2.2083	-2.1742	-1.5457
H	3.0395	-3.9417	-3.2331
H	-3.5740	-0.9717	2.6253
C	-2.4099	6.4633	5.1293
H	-2.4309	3.9967	0.0986
H	2.8027	2.5303	-4.2331
C	-2.1654	5.3597	3.0314
H	5.3545	0.0725	-2.3259
H	0.3922	-2.1390	2.1740
H	-2.8778	-1.0904	-5.3523
H	-3.4384	-2.3567	-3.4814
C	-5.3561	-3.9219	2.1994
H	0.1687	0.4441	-3.2955
H	0.9022	4.1308	-0.2631
H	3.9946	-1.7301	-3.8382
H	4.5427	3.6691	-5.1471
H	-2.9304	1.3740	2.5480
H	2.6575	3.3767	-1.8889
O	-3.6008	6.0434	1.2702
O	-2.7393	6.3907	3.7141
H	4.3155	0.2110	2.2579
H	0.7312	-5.7180	-1.1350
H	1.2794	1.9676	4.8090
H	-0.1569	2.4732	5.1844
H	0.9709	3.5042	4.8318
H	-0.9076	4.6342	4.4266
H	-1.0346	0.3495	-5.2058
H	1.6929	-2.2248	4.0736
H	7.1194	1.2047	-3.2570
H	-1.1454	-5.5663	0.4263
H	-3.5320	-5.0057	4.6535
Ir	0.3139	-0.8582	-0.5461
C	-2.7021	-4.1220	3.0350
H	-4.9120	6.3424	-0.1760
H	-4.6962	4.8277	0.1643
C	2.6690	-0.8816	-2.4262
C	-2.0412	-1.3300	1.2182
C	2.6852	-0.2726	1.1777
C	0.3043	2.0841	-0.1702
C	-0.9649	-3.4845	0.3098
C	3.1226	-0.9915	3.3972
C	-1.9677	-1.6774	-2.2948
C	2.7874	-3.1195	-2.8800
C	-2.8931	-0.6090	2.1057
C	-2.1329	4.1242	0.9704
C	2.7473	0.5540	-2.3821
C	-4.3008	-3.4229	1.4094
C	1.7760	-2.8975	-1.8923
C	0.7904	-3.6208	-1.1096
C	3.6718	2.2775	-4.0189
C	-2.9791	-3.5108	1.8425
C	-1.1874	3.2382	1.4904
C	-1.4587	0.8310	1.1282
C	5.1912	0.8046	-2.8785
C	1.1849	-1.6532	2.2027
C	1.9069	1.4268	-1.6295
H	-3.6122	5.6081	-0.6578
C	-2.3803	-1.0288	-4.5681
C	-2.7097	-1.7807	-3.4505
C	-6.1507	-4.9925	4.2258
C	-0.5695	-0.1209	-3.3368
C	-5.0706	-4.4935	3.4045
C	1.0473	3.2602	-0.5567
C	3.3241	-1.8818	-3.2124
C	-1.9409	-2.7634	1.0702
C	4.7061	2.9480	-4.5843
C	-2.5388	0.6859	2.0577
C	2.0320	2.8315	-1.4658
C	3.5161	-0.2638	2.2673
N	-7.0351	-5.3421	4.8949
C	0.3616	-4.9310	-0.8022
C	0.6128	2.6359	4.6334
C	3.8637	1.2069	-3.1144
C	6.2475	1.4685	-3.4460
C	-1.2094	4.5045	3.5555
C	-0.7462	2.0027	0.7578
C	-0.6946	3.4581	2.8025
C	-1.2782	-0.1781	-4.4786
C	1.9594	-1.7082	3.3481
C	-0.6860	-4.8453	0.0599
H	-2.8654	7.2085	5.5256
C	-4.2598	5.6740	0.0494
H	-1.4615	6.5754	5.2321
H	-2.6840	5.6521	5.5641
C	-3.7268	-4.6078	3.8374
C	6.0116	2.5523	-4.3176
N	1.5287	-0.9299	1.1375
N	-0.8856	-0.8552	-2.2402
N	0.8487	1.0222	-0.8574
N	-1.2113	-0.4067	0.6433
N	-0.0252	-2.7722	-0.3762
N	1.7550	-1.5301	-1.6860
O	0.2279	2.5787	3.2331
*