! UKS B3LYP ma-def2-SVP OPT NumFreq
%basis
NewGTO Lu "ma-def2-TZVP" end
end 

%scf
  maxiter 200
end

%CPCM SMD TRUE
    SMDSOLVENT "ACETONITRILE"
END

%pal 
	nprocs 16
end
* xyz 0 3
H	-1.0261	2.4380	9.1705
Lu	-1.0690	0.2051	-0.2638
C	5.8654	3.4708	-0.4668
H	-3.6017	-3.4108	2.4932
H	3.6406	0.4056	-2.4228
H	-2.0676	1.2997	9.4463
H	-2.5523	2.6969	8.9263
H	-1.7585	-4.5184	-2.6159
C	5.8548	2.3846	0.3966
H	-2.9701	-1.8095	4.2893
H	-3.1231	-4.5611	-0.5275
H	-2.5708	1.0422	-2.9103
H	0.8779	2.1177	4.1492
H	-0.9254	-2.5408	-7.1814
H	2.4718	-1.2277	-3.8367
H	0.9489	-0.7313	4.8710
H	-0.1606	-1.7881	5.1997
H	-3.7063	3.0078	4.4064
H	-3.4287	1.8161	3.4271
H	-2.4179	3.0118	3.5144
H	1.5037	-5.3390	-5.7207
H	6.8962	4.8333	-2.3720
H	2.7995	3.2813	-1.4547
H	8.0257	5.5338	-1.5421
H	6.5238	5.9008	-1.2856
H	-1.7950	-0.8340	-5.8841
C	-2.4157	2.1484	6.4283
H	-0.7808	-0.3109	-4.8106
H	-2.0126	-1.1730	-4.3695
H	2.6342	2.5247	2.4784
H	-4.0450	1.1276	-0.9030
C	-1.7050	1.5626	7.4512
C	-0.8331	0.5257	7.1379
H	1.1741	-4.5891	-8.4230
H	-0.3643	-4.3356	-8.5865
H	0.1466	-5.6646	-7.9310
H	2.4325	-3.9766	-2.9371
H	2.1144	-5.4164	-3.4706
H	1.1505	-4.7305	-2.4415
C	-0.6568	0.0879	5.8244
H	-2.9028	2.5247	0.8220
H	4.7187	4.5384	-1.7339
H	-0.7572	3.3267	-0.1275
H	-0.5395	2.4046	-2.4370
C	-1.8516	2.0430	8.8787
C	1.9674	0.2994	-1.1155
C	-3.1117	-2.6275	2.3887
C	-1.1651	0.3064	3.3605
C	-2.5875	-2.1132	1.1741
C	1.5239	1.2545	1.1761
C	2.8089	0.0293	-2.2528
C	0.9148	-1.2077	-2.3942
C	-1.9930	-0.6945	2.7815
C	-1.8024	-3.8498	-1.9707
C	0.0023	-2.1938	-2.7898
C	4.6968	1.6413	0.5563
C	7.1302	5.1922	-1.5128
C	3.5326	1.9509	-0.1382
C	-2.2680	1.7414	5.1015
C	-1.3813	0.7039	4.7953
C	-0.5379	-2.2898	-5.2197
C	-2.7545	-1.7388	3.3880
C	-2.5674	-3.8712	-0.8118
C	-0.0725	0.8955	2.7012
C	2.2856	1.1366	-0.0150
C	-2.3923	1.5012	-2.1214
C	-1.0962	-2.6111	-1.9863
C	0.9053	1.7672	3.2871
C	-2.3405	-2.6442	-0.1442
C	-0.4643	-2.9104	-6.4630
C	2.1619	-0.8794	-3.0315
C	0.9429	-3.9859	-4.3286
O	7.0466	4.1665	-0.5331
C	0.3166	-1.0249	5.5308
C	-3.0241	2.4593	4.0134
C	0.9849	-4.5784	-5.5940
C	0.1608	-2.8430	-4.1356
C	0.2760	-4.0633	-6.6616
C	3.5676	3.0478	-0.9872
C	-1.3555	-1.0395	-5.0566
C	1.8793	1.9927	2.3638
C	-3.2186	1.5452	-0.9952
C	0.3120	-4.7225	-8.0252
C	1.7313	-4.5811	-3.1918
C	-2.5771	2.3339	-0.0285
H	4.6989	0.9194	1.1430
H	6.6238	2.1551	0.8672
C	-1.3745	2.7809	-0.5581
C	-1.2526	2.2645	-1.8567
N	-1.9604	-0.9274	1.4316
N	-1.4850	-1.8889	-0.8875
N	0.8250	-0.4433	-1.2354
N	0.3293	0.6178	1.3975
C	4.7205	3.8084	-1.1578
H	-3.0103	2.8356	6.6276
H	-0.3556	0.1147	7.8210
H	0.7832	-1.2624	6.3367
*