! UKS B3LYP ma-def2-SVP OPT NumFreq
%basis
NewGTO Ta "ma-def2-TZVP" end
end 

%scf
  maxiter 200
end

%CPCM SMD TRUE
    SMDSOLVENT "ACETONITRILE"
END

%pal 
	nprocs 16
end
* xyz 0 1
H	-0.7919	3.2162	6.9234
H	-2.0748	-0.3992	4.2638
H	-1.3888	5.4748	-0.1492
H	-4.3414	2.8843	2.5519
H	5.2820	0.2468	-0.0378
H	4.3985	1.4562	-0.5989
C	-1.2215	2.8436	1.6438
C	-1.4921	1.9077	2.6584
C	-1.9652	2.3846	4.0044
C	3.4341	-1.0694	1.3701
C	-1.0056	2.6669	4.9903
C	-3.7227	2.8538	5.5834
C	3.4314	0.3740	0.8691
C	-1.5738	4.2183	1.4969
H	-1.9403	-4.6161	0.0143
C	0.4747	2.5677	4.6907
H	0.1870	-4.0146	-1.7502
C	3.8467	1.3036	2.0007
C	-1.4033	-1.7268	2.8244
C	-3.2218	3.5583	7.9585
C	-0.8566	-1.4814	1.5311
H	0.6365	-2.7404	-3.8128
C	-1.4394	3.0306	6.2542
C	-1.6958	-0.5225	3.4020
C	-0.6838	3.5024	-0.4488
C	-1.2532	4.6100	0.2211
C	-2.7815	3.1323	6.5801
C	-4.3748	2.1900	3.2431
C	-3.3308	2.4799	4.2994
C	-1.3396	0.5139	2.4984
C	4.3809	0.5215	-0.3077
N	-0.8283	-0.0991	1.3454
N	-0.6529	2.4507	0.4520
N	2.0829	0.6919	0.4407
C	0.1769	-3.0685	-1.8301
C	0.4292	-2.3639	-2.9651
H	-0.5782	-9.5795	2.5593
H	3.4789	-0.7934	-6.8397
H	-0.8971	-8.8496	1.1717
H	-1.7207	-8.4617	2.4877
H	2.7398	-0.5861	-9.3171
H	1.2275	-1.0134	-9.6205
H	2.2652	-2.0905	-9.0504
H	-1.7450	-6.8072	0.7850
H	-0.3276	4.5782	-3.2956
H	-0.3758	-0.6141	-7.9453
H	0.3358	2.7521	-4.8444
H	1.2939	-3.5593	2.1499
H	-1.6665	0.3524	-4.7823
H	-1.9939	-0.9956	-5.5800
H	-2.0052	0.4109	-6.3441
H	3.2056	0.6627	-3.8092
H	4.1876	-0.2364	-4.6969
H	3.2375	-0.9244	-3.6092
H	4.0747	-0.0456	-1.0466
H	-1.5402	-2.5801	3.2182
H	1.5317	-5.7390	2.8827
C	2.5644	-0.6599	-6.6176
C	-0.8452	-8.7326	2.1438
C	-0.2649	3.1298	-1.7477
C	1.6050	-0.7769	-7.6133
C	0.3331	-0.9727	-2.6792
C	0.5103	0.1273	-3.5452
C	-1.1226	-6.1472	1.0667
C	1.9925	-1.1495	-9.0241
C	0.3223	1.4600	-3.1597
C	-0.1694	3.6741	-3.0549
C	0.2887	-0.5645	-7.2668
C	0.1943	2.6643	-3.9102
C	-0.4597	-2.4224	0.5647
C	0.6672	-4.2155	1.8676
C	-1.5714	-0.1130	-5.6393
C	2.2309	-0.3521	-5.3035
C	-0.1085	-0.2771	-5.9624
C	-0.1032	-2.1528	-0.7819
C	0.8798	-0.1741	-4.9708
C	3.3100	-0.1995	-4.2636
C	0.8079	-5.5126	2.3096
N	0.0718	1.7958	-1.8362
N	-0.0003	-0.8672	-1.3211
Ta	0.3837	0.7183	-0.0836
C	-0.3644	-3.8455	1.0241
H	2.8094	-1.1546	2.1210
C	-0.0921	-6.4868	1.9310
H	4.3354	-1.3110	1.6645
H	3.1547	-1.6658	0.6449
C	-1.2407	-4.8361	0.6165
H	-4.6478	2.9212	5.7849
H	-1.9631	4.7690	2.1668
H	0.7058	3.1934	3.9721
H	-5.2639	2.1824	3.6553
H	0.6910	1.6546	4.4107
H	-4.1951	1.3163	2.8382
H	0.9866	2.7928	5.4960
H	3.8787	2.2256	1.6703
H	4.7327	1.0429	2.3294
H	3.1960	1.2400	2.7306
O	0.1145	-7.7320	2.4504
H	-2.6935	3.0814	8.6330
H	-4.1712	3.3460	8.0794
H	-3.0873	4.5235	8.0614
*