! UKS B3LYP ma-def2-SVP OPT NumFreq
%basis
NewGTO Ce "ma-def2-TZVP" end
end 

%scf
  maxiter 200
end

%CPCM SMD TRUE
    SMDSOLVENT "ACETONITRILE"
END

%pal 
	nprocs 16
end
* xyz 0 3
H	5.7889	-3.8492	-7.2774
H	1.7299	-3.5557	5.0521
Ce	-0.8724	-0.2272	0.4655
C	-3.4846	-0.5452	-2.0567
C	-1.8090	4.1342	1.5501
H	5.5738	0.4714	5.7028
H	1.7987	-3.0684	3.5270
H	6.1403	-2.5653	-6.3905
B	-3.4946	-2.9872	0.6006
C	-4.5362	-2.1802	2.8312
H	-2.4529	-5.6151	0.0706
H	-5.4141	-2.9321	-1.5706
C	-3.0444	-0.6946	3.3778
C	-2.9394	3.9299	-3.5516
H	-4.7701	-1.0195	4.5838
H	-0.4309	2.1404	-4.4095
C	-3.2557	4.9989	-4.3863
H	5.4238	-1.0614	8.0941
H	0.0430	-5.8038	-0.1988
H	6.5942	-1.4361	7.0705
H	5.5776	-2.5653	7.5678
C	-1.3075	6.1517	-3.7767
H	1.2572	1.5351	5.2469
H	3.4493	-4.5828	-3.7133
C	5.4213	-3.1627	-6.6831
C	3.4530	-0.9016	-3.7588
C	4.2196	-1.6038	-4.6917
C	-3.8235	2.7168	-3.4712
C	4.1858	-2.9741	-4.6806
H	1.1309	0.2015	-4.4261
C	-4.6025	-1.2789	-2.5110
C	3.9970	0.2460	4.4566
C	1.7011	-2.7749	4.4578
C	-1.8227	-4.9103	0.1535
C	2.6502	-1.5330	-2.8288
H	0.7745	6.0941	-2.3539
C	-4.7501	-2.2535	-1.5619
H	-4.1786	-3.7155	0.6508
H	-2.3604	5.0984	-0.1905
C	2.8290	-1.8343	4.8101
H	0.9683	4.5115	-2.4907
C	0.8658	0.1360	-2.3108
H	0.1993	5.1142	-1.2266
C	-1.3300	2.8006	1.7051
C	-0.6285	2.1273	2.7520
C	2.2388	-0.7889	1.7433
C	2.9466	-0.6317	4.1213
C	-1.3825	2.9028	-1.8205
H	0.9771	-3.5190	0.1866
C	-2.4917	6.1176	-4.5173
C	2.1625	-1.0352	-0.4810
C	3.3817	-1.5749	1.3582
H	-0.4659	3.2120	4.5673
H	2.1500	-3.4038	-2.1964
N	0.0067	0.8586	-1.5155
H	-1.9490	4.7709	2.2381
C	3.7269	-2.1776	5.8097
N	-1.2975	2.1888	0.4933
N	0.0105	0.9804	2.3666
O	4.8460	-3.7745	-5.5699
H	-3.1244	0.2041	-2.5155
N	1.5073	-0.5201	0.6114
H	-5.2915	-2.7566	2.8225
H	4.9748	2.0067	4.0658
H	-4.0560	4.9465	-4.8944
H	3.3918	2.1115	3.8586
C	-4.2611	-1.2396	3.8113
C	3.3417	-1.7374	0.0150
H	4.2946	1.3674	2.7644
H	-2.3404	7.1054	-6.2952
N	-2.1016	-3.6283	0.4324
H	-2.5630	-0.0317	3.8586
C	-0.1646	1.6294	-3.6540
H	-2.5855	8.0827	-5.0519
N	-3.8072	-2.1005	-0.6074
H	-0.7386	6.9089	-3.8583
H	-3.7960	7.2155	-5.6363
N	-3.5659	-2.1548	1.8933
N	-0.9436	-2.8939	0.4788
C	-0.4497	-5.0177	0.0072
C	0.3644	5.2190	-2.1860
C	4.7473	-1.3077	6.1608
N	-2.9919	-1.0166	-0.9162
C	1.8149	-0.8020	-1.8400
N	-2.6405	-1.2081	2.2190
C	4.8673	-0.1182	5.4728
C	-0.6022	1.8259	-2.3083
C	5.6676	-1.6221	7.3270
C	-2.8331	7.2259	-5.4560
C	-1.6564	3.1045	-0.4558
C	0.7920	1.5587	4.4172
C	3.4393	-3.6317	-3.7398
C	-0.1671	2.4757	4.0459
C	2.6727	-2.9295	-2.8313
C	1.9825	-0.2780	3.0351
C	-2.0240	4.3098	0.2185
C	0.7070	0.5735	-3.6619
H	3.4843	0.0495	-3.7630
H	4.7573	-1.1374	-5.3213
C	0.9571	0.6495	3.3173
H	-4.6838	2.9080	-3.8998
H	-3.9723	2.4810	-2.5321
H	-3.3908	1.9648	-3.9288
C	-0.9349	5.1246	-2.9304
H	4.0457	-1.9182	1.9438
H	-5.1265	-1.1321	-3.2905
C	-1.7652	3.9980	-2.7862
H	3.6418	-3.0107	6.2540
C	4.1808	1.5456	3.7226
C	0.0567	-3.7522	0.2194
H	3.9682	-2.2221	-0.5096
H	0.8433	-2.3138	4.5673
H	4.7385	-2.6466	-7.1614
*