! UKS B3LYP ma-def2-SVP OPT NumFreq
%basis
NewGTO Ce "ma-def2-TZVP" end
end 

%scf
  maxiter 200
end

%CPCM SMD TRUE
    SMDSOLVENT "ACETONITRILE"
END

%pal 
	nprocs 16
end
* xyz 0 1
H	1.9084	0.0485	7.4786
Ce	0.1938	1.2412	-0.5817
H	5.1392	-0.7685	-1.4865
H	3.8242	-2.1322	-3.0954
H	0.0445	1.3354	-5.0408
H	-8.9189	-0.9830	0.9569
H	-0.3008	2.6489	-4.2504
H	-9.6403	-1.8237	2.0655
H	-1.5316	3.5889	-2.3279
H	-8.5709	-0.7499	2.4674
H	2.5948	1.7631	9.3238
H	-1.4884	-3.3305	-2.9946
H	3.8877	2.3232	8.6364
H	1.9762	2.4410	-4.5175
H	2.6569	3.2632	8.8731
H	1.9422	1.0600	-3.7711
H	-3.0495	0.0273	3.3421
H	-3.2088	-2.7757	-1.3338
H	-2.9796	2.4092	-0.7064
H	4.1180	1.2374	3.3984
H	1.3449	-3.7304	-6.8300
H	-1.9183	0.2788	-4.3505
H	-2.2541	0.1411	-2.8265
H	-2.3815	1.5340	-3.5343
H	-1.2271	1.1064	4.5699
H	5.2347	0.5675	1.2948
H	-2.0163	2.7349	1.5884
H	0.3809	4.6204	-1.0587
H	3.4027	3.4274	-2.9738
H	3.0259	3.4764	-1.4548
H	3.5077	2.1312	-2.0999
H	1.4700	-0.8479	-5.1177
H	0.0690	4.0325	1.3551
H	1.0116	-1.4610	-6.4847
H	-0.0319	-1.2398	-5.3360
H	0.7110	-4.5539	-1.2955
H	1.8690	-5.5761	-1.5617
H	2.2000	-4.0653	-1.3044
H	1.8333	-6.2752	-3.8025
H	-4.5999	0.5648	0.8664
H	-6.8095	0.0432	1.3035
H	2.1065	-7.1159	-5.9937
H	0.8615	-6.6049	-6.7970
H	2.2969	-6.0964	-7.1707
H	-3.5721	-3.2405	1.1673
H	1.7404	-1.1723	4.4754
H	1.2724	-1.4318	5.9496
H	0.2638	-0.8545	4.8959
H	-5.7975	-3.8257	1.5221
H	1.3152	3.8869	3.3966
H	2.8765	3.9491	3.5221
H	1.9785	4.8018	4.4846
C	2.3587	1.9683	7.2681
C	2.9292	2.3682	8.6580
H	2.7582	3.8776	6.5835
C	2.1140	-1.2438	-2.2502
C	0.9929	-1.9892	-2.6573
C	4.2139	-0.7804	-1.5812
C	3.3369	0.7012	0.4079
C	-1.7231	-0.1607	1.6853
C	-8.8135	-1.4080	1.8106
C	3.4824	-1.5364	-2.4678
C	-2.4105	-0.8810	0.7048
C	3.2480	-0.0019	-0.8199
C	0.1188	1.7777	-4.1815
C	-1.8430	-1.3921	-0.5160
C	-1.3925	3.5386	-1.4090
C	-1.4132	-2.7016	-2.3141
C	-0.0559	0.8521	2.8212
C	-0.2835	-1.8754	-2.0427
C	1.5218	1.9326	-3.8282
C	1.1580	-2.8446	-5.0163
C	-0.4992	3.7915	0.6610
C	1.2179	1.2798	3.1728
C	-2.1946	0.1901	3.0131
C	-2.3624	-2.3957	-1.3893
C	1.2028	-3.0935	-3.6495
C	-2.2057	2.8832	-0.5007
C	3.7098	1.1170	2.5712
C	1.3558	-3.9025	-5.9163
C	2.3193	1.2825	2.2802
C	-1.8803	0.7158	-3.4978
C	-1.1885	0.7912	3.6953
C	-0.3139	4.1199	-0.6985
C	4.3301	0.7502	1.4061
C	-1.6585	3.0580	0.7940
C	1.4736	-4.3977	-3.1912
C	-3.8278	-1.2716	0.9717
C	3.0093	2.9375	-2.2474
C	0.8772	-1.4768	-5.5353
C	1.5661	-5.2027	-5.4703
C	1.5731	-4.6731	-1.7014
C	1.6504	-5.4172	-4.1127
C	-4.8294	-0.3249	1.0142
C	1.5366	1.5234	4.6224
C	-6.1663	-0.6281	1.2698
C	-6.5106	-1.9416	1.4711
C	1.7216	-6.3626	-6.4486
C	1.5826	0.5331	5.5604
C	-4.2192	-2.5718	1.1813
C	1.1779	-0.8559	5.1871
C	2.0155	2.8223	4.9938
C	-5.5587	-2.9333	1.4104
C	1.9468	0.7475	6.8668
C	2.4360	3.0448	6.3243
C	2.0498	3.9703	4.0094
N	2.0171	-0.2521	-1.3012
N	2.1383	1.0746	0.9209
N	-0.4327	0.3291	1.5686
N	-0.5850	-1.0651	-0.9610
O	-0.5527	0.9978	-3.1793
O	1.6486	2.6078	-2.5737
O	-7.7828	-2.4024	1.7255
*