! UKS B3LYP ma-def2-SVP OPT NumFreq
%basis
NewGTO I "ma-def2-TZVP" end
end 

%scf
  maxiter 200
end

%CPCM SMD TRUE
    SMDSOLVENT "ACETONITRILE"
END

%pal 
	nprocs 16
end
* xyz 0 3
H	4.7277	2.7152	-1.6528
H	4.9199	5.0489	-1.2611
N	-1.9437	-0.7332	-0.0902
H	3.4000	4.6771	-1.5966
H	4.2582	0.1370	-3.2824
H	5.8572	0.9021	-4.8119
H	5.6412	3.0182	-5.7725
H	3.8874	4.4059	-5.1539
H	2.3024	3.6739	-3.5928
H	1.2705	0.0580	-6.2405
H	2.3297	0.8703	-5.3585
H	1.3529	2.4019	-6.7894
H	0.7663	2.7241	-5.3352
H	-0.5901	-1.1158	-6.2365
C	2.0675	1.3206	-2.3473
C	0.9776	0.5715	-2.8793
C	0.6799	0.2691	-4.2780
C	-0.4575	-0.4927	-4.2826
H	-2.5905	-1.6862	-3.1591
C	3.1109	1.8228	-3.3018
C	4.1767	1.0040	-3.6605
C	5.1249	1.4585	-4.5733
C	5.0040	2.7202	-5.1358
C	3.9626	3.5389	-4.7730
C	3.0153	3.1005	-3.8491
C	1.3633	0.7506	-5.5399
C	0.7890	2.0658	-6.0621
Mn	-0.0934	-0.1375	-0.1469
H	0.9381	2.1919	5.3886
H	2.0403	2.4796	4.2651
H	1.8307	0.0440	5.7425
H	2.9849	1.1351	5.9305
H	2.9029	0.2821	4.5786
H	3.2821	3.0296	2.9687
H	4.2958	3.6000	1.8699
H	-0.1197	1.9169	-6.3954
H	5.4044	2.1308	3.3765
H	5.4881	1.5718	1.8783
H	-1.5454	-1.9396	-5.2530
H	4.4410	0.9403	2.9116
H	-3.0435	-0.1228	-5.1536
H	5.2109	2.9889	-0.1507
H	-2.8158	-0.5391	-6.6810
H	-2.0730	0.7455	-6.0837
H	3.8441	4.9432	-0.0820
H	-4.6807	-3.4317	2.3100
H	-5.4722	-3.7870	0.9648
H	-6.2748	-3.3019	2.2629
H	-3.7666	-3.2828	5.6585
C	-0.8916	-0.6406	-2.9322
C	0.5553	1.2138	3.6226
C	0.7678	1.1208	2.2120
C	1.7223	1.5259	1.2056
C	2.9559	2.2428	1.0947
C	3.2721	2.3121	-0.2587
C	2.2419	1.6015	-0.9877
C	-1.2128	-1.0331	-5.4704
C	-2.3912	-0.1597	-5.8841
C	1.4785	1.7730	4.6720
C	2.3797	0.7150	5.2847
C	3.8412	2.7814	2.1909
C	4.8864	1.7654	2.6279
C	4.4512	3.0882	-0.7789
C	4.1248	4.5727	-0.9450
H	-5.6259	-2.7289	-1.2780
H	-4.5188	-2.8181	-2.4303
H	-4.9692	-0.5455	-3.0121
H	-6.1108	-0.4983	-1.8917
H	-6.2817	-1.4481	-3.1678
H	-5.3561	-1.1744	2.0857
H	-6.0872	-1.5436	0.7127
I	1.2987	-2.3545	0.3396
H	-2.4966	-2.7366	3.7622
N	-0.3056	0.4750	1.6604
N	1.3260	1.1577	-0.0467
H	-5.3476	-1.7792	6.4635
N	-0.0006	0.0107	-2.0832
H	-5.7159	0.2299	5.3683
H	-4.4084	0.8258	3.5153
H	-0.6130	0.5253	5.9585
C	-5.4479	-3.1962	1.7470
H	-1.9689	-0.0693	5.3494
H	-1.3684	2.7330	5.4618
H	-2.3993	1.9958	6.4387
H	-2.7305	2.1308	4.8788
C	-2.6057	-1.2349	-1.1977
C	-3.9025	-1.7024	-0.8131
C	-4.0326	-1.4882	0.5335
C	-2.7835	-0.9004	1.0049
C	-2.4152	-0.5236	2.3227
C	-1.2179	0.1441	2.6500
C	-0.6797	0.6296	3.8996
C	-2.0797	-1.2328	-2.4975
C	-4.9479	-2.2095	-1.7775
C	-5.6390	-1.0738	-2.5300
C	-5.3172	-1.7664	1.2933
C	-3.3136	-0.9019	3.4640
C	-3.1375	-2.1204	4.0960
C	-3.8972	-2.4488	5.2204
C	-4.8374	-1.5614	5.6912
C	-5.0448	-0.3634	5.0525
C	-4.2766	-0.0133	3.9428
C	-1.3122	0.6679	5.2718
C	-2.0162	2.0022	5.5366
*