! UKS B3LYP ma-def2-SVP OPT NumFreq
%basis

end 

%scf
  maxiter 200
end

%CPCM SMD TRUE
    SMDSOLVENT "ACETONITRILE"
END

%pal 
	nprocs 16
end
* xyz 0 1
Ni	0.4794	1.1400	0.3564
H	7.0329	4.2061	3.1288
H	5.5606	3.1834	1.6362
H	6.1711	5.5629	6.3097
H	7.0859	6.0045	5.1373
H	7.2905	4.6170	5.7998
H	-3.5174	0.4467	-2.3301
H	-3.3978	2.9412	-2.2239
H	0.5360	6.1164	0.1288
H	2.5419	5.5154	1.4562
H	4.7531	0.8040	2.8692
H	4.0773	-1.5418	2.5576
H	3.0118	-3.0044	3.2780
H	3.3771	-5.1938	3.8562
H	0.7858	-6.4264	1.0373
H	1.8856	-8.0654	2.3466
H	2.1320	-7.5932	3.8041
H	3.3172	-7.6805	2.8054
H	1.0762	-5.9327	-1.4987
H	0.1102	-7.6484	-2.7413
H	-2.1755	-8.0209	-2.6315
H	-3.5173	-6.6579	-1.3072
H	-2.5684	-4.9086	-0.0897
H	-2.8596	-3.3264	-5.3509
H	-4.8929	-3.7771	-6.4401
H	-6.8288	-4.1267	-5.2003
H	-6.7962	-3.8323	-2.9150
H	-4.7968	-3.2865	-1.8200
H	-1.8717	4.8040	-3.0986
H	-1.9960	5.9186	0.7981
H	2.5122	3.9730	4.1454
H	4.0072	4.9420	5.6644
C	-1.7421	0.4789	-1.1509
C	-2.8551	0.9650	-1.8872
C	-2.7828	2.3325	-1.8317
C	-1.6174	2.6882	-1.0798
H	-3.0603	6.7128	-3.6609
C	-1.0721	3.9178	-0.7085
C	5.6764	4.6507	4.5507
C	0.1309	4.0221	0.0136
H	-3.1913	7.8075	0.2044
C	0.8089	5.2379	0.3640
C	6.1120	4.1432	3.3537
C	1.9086	4.9113	1.0892
C	6.6464	5.2670	5.5421
C	1.9309	3.4947	1.1983
H	-4.3375	9.1306	-1.3911
C	2.9036	2.7097	1.8749
H	-4.9377	8.3119	-2.5662
C	2.9395	1.3329	1.8740
H	-3.6595	9.1612	-2.7872
C	3.9547	0.5035	2.4496
C	3.5782	-0.7782	2.2922
C	2.2911	-0.7982	1.6544
C	1.4922	-1.9465	1.3171
C	0.3824	-1.7549	0.5013
C	-0.4161	-2.8112	-0.0793
C	-1.4069	-2.1152	-0.8560
C	-1.1873	-0.7690	-0.7257
C	1.7303	-3.3248	1.7157
C	2.5729	-3.6897	2.7841
C	2.7838	-4.9990	3.1406
C	2.1463	-6.0554	2.4775
C	1.2573	-5.7273	1.4736
C	1.0165	-4.3904	1.0685
C	2.3939	-7.4797	2.8969
C	-0.0298	-4.1328	0.1143
C	-0.6511	-5.2367	-0.6615
C	0.1368	-6.0707	-1.4612
C	-0.4340	-7.0949	-2.1949
C	-1.7860	-7.3126	-2.1322
C	-2.5796	-6.5046	-1.3490
C	-2.0135	-5.4667	-0.6222
C	-2.3490	-2.9185	-2.8512
C	-3.6369	-3.2742	-3.4774
C	-3.6600	-3.4199	-4.8471
C	-4.8677	-3.7066	-5.4916
C	-6.0193	-3.8890	-4.7618
C	-5.9966	-3.7281	-3.4152
C	-4.8019	-3.4092	-2.7606
C	-1.7874	5.1536	-1.0927
C	-2.1330	5.4111	-2.4177
C	-2.2092	6.0719	-0.1143
C	3.8892	3.4410	2.7460
C	3.4388	3.9960	3.9413
C	4.3300	4.5863	4.8452
C	5.2293	3.5361	2.4558
N	-1.0097	1.5138	-0.6839
N	0.8732	2.9504	0.5216
N	1.9381	0.5065	1.3515
N	-0.0648	-0.5667	0.0762
O	-2.5086	-2.6380	-1.5276
O	-1.2889	-2.8542	-3.4013
C	-2.8536	6.5441	-2.7501
C	-3.2809	7.4395	-1.7778
C	-2.9292	7.1911	-0.4701
C	-4.1319	8.6200	-2.1662
*