! UKS B3LYP ma-def2-SVP OPT NumFreq
%basis
NewGTO Zr "ma-def2-TZVP" end
end 

%scf
  maxiter 200
end

%CPCM SMD TRUE
    SMDSOLVENT "ACETONITRILE"
END

%pal 
	nprocs 16
end
* xyz 0 3
H	2.9361	2.2540	-3.4689
Zr	0.8498	-0.5105	-0.4560
C	-0.8702	-7.0471	2.2690
C	-0.4199	-5.8518	1.6583
C	-2.1684	-7.2300	2.6038
H	-0.6921	-4.1986	-3.7402
H	3.9032	3.4505	-3.9123
H	-1.1959	-5.3018	-1.5373
C	-3.0265	-6.1970	2.2519
H	3.2148	3.4723	-2.4666
C	-2.6262	-4.9863	1.6253
H	0.3692	7.2701	-6.6436
O	-0.7883	4.5462	6.7964
H	-1.3708	-2.8771	3.5164
H	-1.1882	-0.4683	4.1663
C	1.0026	-5.6942	1.3400
H	1.7978	7.5697	-5.9876
C	-2.6175	-8.4997	3.3471
H	1.6786	6.5439	-7.2085
C	-3.6108	-3.9083	1.2556
H	-1.8765	4.2303	-2.7015
H	0.4365	1.2282	-5.3741
H	-2.4072	4.3354	-4.2079
H	0.0847	-1.2778	-5.4571
H	-1.8477	2.9445	-3.6531
H	-0.2441	-7.7383	2.4494
H	-3.9511	-6.3077	2.4453
H	1.2940	-4.7918	1.5868
H	1.5248	-6.3554	1.8419
H	1.1402	-5.8296	0.3801
H	-2.8283	-8.2761	4.2777
H	-3.4147	-8.8693	2.9110
H	-1.8977	-9.1630	3.3261
H	-3.3262	-3.4783	0.4226
H	-4.4991	-4.3057	1.1333
H	-3.6473	-3.2402	1.9715
C	3.0749	-1.4760	-0.9724
C	2.7330	-1.9790	0.2783
C	-0.1503	2.1326	0.8780
C	2.6696	-0.8738	1.1742
C	-0.0984	3.5991	0.7119
C	2.9772	0.3224	0.4327
C	0.1718	3.8719	-0.5958
C	3.2252	-0.0738	-0.8738
C	0.2996	2.5856	-1.2923
N	-0.1130	-2.2812	-1.2510
C	0.5005	2.3683	-2.6630
N	-0.4729	-0.9723	1.0999
N	0.1095	1.5314	-0.3555
N	0.3906	-0.1280	-2.5019
H	3.1879	-1.9901	-1.7641
H	2.5727	-2.8890	0.4955
H	2.4611	-0.9187	2.0991
H	-0.2307	4.2422	1.3985
H	3.0053	1.2084	0.7729
H	0.2616	4.7343	-0.9846
H	3.4590	0.5060	-1.5899
C	-0.6025	2.2151	3.3044
C	-0.1291	-2.4662	-2.6157
C	0.4746	2.4655	4.1145
C	-0.5948	-3.8037	-2.8813
C	0.3748	3.2394	5.2623
C	-0.8777	-4.4162	-1.6663
C	-0.8036	3.7868	5.6403
C	-0.5952	-3.4461	-0.6444
C	-1.8948	3.5422	4.8689
C	-0.8513	-3.4727	0.7470
C	-1.7794	2.7640	3.7069
C	-0.7946	-2.2917	1.5577
C	-1.9638	5.1968	7.1979
C	-1.1232	-2.1657	2.9381
C	0.6769	3.5789	-3.5729
C	-1.0209	-0.8183	3.2999
C	1.9334	3.9487	-3.9698
C	-0.6223	-0.0472	2.1505
C	2.0783	5.0188	-4.8918
C	-0.4535	1.3947	2.0549
C	1.0218	5.7216	-5.4079
C	-0.2003	5.3466	-4.9911
C	-0.3974	4.2809	-4.0708
C	3.0954	3.2197	-3.4065
H	1.3190	2.0973	3.8828
H	1.1479	3.3870	5.7921
C	1.2364	6.8822	-6.4029
C	-1.7435	3.9178	-3.6207
H	-2.7398	3.8989	5.1179
C	0.4811	1.0516	-3.2626
H	-2.5552	2.6152	3.1803
C	0.3823	0.6512	-4.6221
H	-2.6629	4.5319	7.3714
C	0.1883	-0.7530	-4.6711
H	-1.7900	5.7105	8.0153
C	0.1766	-1.2344	-3.3314
H	-2.2611	5.8038	6.4886
C	-1.3007	-4.7968	1.3522
H	2.9553	5.2601	-5.1656
H	-0.9594	5.8117	-5.3235
*