! UKS B3LYP ma-def2-SVP OPT NumFreq
%basis
NewGTO Pt "ma-def2-TZVP" end
end 

%scf
  maxiter 200
end

%CPCM SMD TRUE
    SMDSOLVENT "ACETONITRILE"
END

%pal 
	nprocs 16
end
* xyz 0 3
C	-7.3748	5.3928	0.1145
C	0.5051	0.7484	-2.0410
C	1.5644	0.3015	-2.8395
C	1.9739	0.9958	-3.9784
C	1.3503	2.1772	-4.3564
C	0.2857	2.6383	-3.5742
C	-0.1273	1.9317	-2.4395
C	-0.4095	3.8519	-3.9370
H	4.3797	-2.0600	0.8445
H	-2.6508	-2.9625	5.4931
N	1.6199	-0.5726	0.3512
N	-0.5193	1.3809	0.6092
H	3.5923	-7.0398	-0.7210
N	-1.9762	-0.3048	-1.1535
H	6.1793	-4.2530	-2.0716
N	-0.9796	4.8164	-4.1779
H	4.5984	-2.5844	-1.7074
H	6.2324	-7.1191	-2.4678
H	5.9271	-7.6460	-0.9868
H	7.0140	-6.4943	-1.2195
H	2.0080	0.7652	4.3361
C	2.4258	-1.6452	0.0609
C	3.6304	-1.4749	0.8399
H	4.1521	0.0301	2.1685
H	3.0778	3.7019	1.7874
C	3.1224	-3.8068	-1.0032
C	2.8308	-5.1518	-0.7423
C	3.8029	-6.1348	-0.9172
C	5.0789	-5.8100	-1.3750
H	-8.0944	5.1152	-0.4911
C	5.3356	-4.4848	-1.7020
C	4.3856	-3.4869	-1.5023
H	2.6895	0.6561	-4.5019
C	6.1584	-6.8600	-1.5251
C	3.5059	-0.3257	1.5692
C	2.4239	2.1176	2.8806
C	3.1169	3.2929	2.6439
H	-1.4621	-3.9691	-3.4260
H	0.8203	-4.6745	-2.6954
H	-4.0370	-1.5195	-3.2151
H	1.9628	-5.3960	-0.4442
H	-2.0818	-2.7146	0.2415
H	3.2232	1.7755	6.0285
H	-3.0271	-3.8513	2.0413
H	4.3608	4.6701	3.4775
H	-1.1173	-1.3857	4.5919
H	-3.7086	-3.6592	4.5168
H	-2.2922	-4.3522	4.7870
C	-1.2028	-2.2720	-2.1579
C	-0.8992	-3.5042	-2.8194
C	0.3607	-3.8910	-2.4143
H	4.6810	3.4528	6.8493
C	0.8622	-2.9016	-1.4884
H	4.3765	4.8871	6.2071
C	2.0895	-2.7485	-0.8050
H	5.6725	4.0652	5.7530
H	0.0800	3.7193	2.6741
H	-2.2013	3.8420	1.6873
H	-4.8228	0.5966	-2.1444
C	-3.5626	-1.0051	-2.5722
C	-2.2653	-1.2952	-2.0406
H	-2.9842	4.3850	-0.6174
H	-4.7924	5.8478	-0.4953
H	-7.2449	2.7474	0.3229
H	-5.4395	1.2759	0.2367
H	-7.0919	6.3040	-0.1119
H	-7.6998	5.3718	1.0385
H	2.0180	-0.4980	-2.5996
H	1.6386	2.6569	-5.1233
H	-0.8543	2.2627	-1.9261
H	-0.1469	-0.2625	2.8002
Pt	-0.2088	-0.3214	-0.3455
C	2.4812	1.5685	4.1542
C	-1.0000	-1.3744	1.3197
C	3.2133	2.1672	5.1637
C	-1.8699	-2.4418	1.1268
C	3.9296	3.3276	4.9321
C	-2.4412	-3.1212	2.2048
C	3.8725	3.8755	3.6614
C	-2.1656	-2.7480	3.5051
C	-1.3102	-1.6683	3.7051
C	2.2192	0.2492	1.2686
C	-0.7310	-0.9927	2.6337
C	1.6404	1.4280	1.8059
C	-2.7563	-3.4968	4.6795
C	0.3616	1.9628	1.4840
N	-0.1291	-1.9710	-1.3848
C	-0.2903	3.1148	2.0415
C	-1.5459	3.1824	1.4948
C	-1.7023	2.0822	0.5778
C	-2.8548	1.7451	-0.2197
C	4.7366	3.9920	6.0327
C	-2.9760	0.6152	-1.0569
C	-3.9943	0.1627	-1.9777
C	-4.0109	2.6829	-0.1671
C	-3.8465	4.0478	-0.4044
C	-4.9268	4.9205	-0.3340
C	-6.2042	4.4519	-0.0302
C	-6.3744	3.0883	0.1539
C	-5.2988	2.2057	0.0968
*