! UKS B3LYP ma-def2-SVP OPT NumFreq
%basis

end 

%scf
  maxiter 200
end

%CPCM SMD TRUE
    SMDSOLVENT "ACETONITRILE"
END

%pal 
	nprocs 16
end
* xyz 0 3
Mn	-0.5268	1.1108	0.1678
P	-0.4764	-1.5943	-2.0769
H	4.2380	2.4084	-0.1158
H	-5.5006	0.6468	-0.0889
H	4.0796	0.6788	1.6492
F	5.6534	6.3973	-3.6924
H	-4.7781	2.5351	-1.6321
H	0.1937	-2.1376	3.9545
F	5.2942	6.5627	-1.0088
H	-2.3195	-2.1504	3.4019
H	-2.2539	4.7089	-2.6361
H	0.2073	5.1595	-2.6995
H	2.0376	-2.8673	-2.6508
H	3.4581	-4.3523	-1.4325
H	-5.3790	-1.4079	-2.0496
H	2.7752	-5.1844	0.6122
H	0.5215	-4.6083	1.4424
H	-5.6385	-3.7890	-2.1971
H	-0.6531	-3.0465	0.3324
H	-3.0297	-0.5373	-1.9967
H	-3.7127	-5.1716	-2.2774
H	-1.5068	-4.2870	-2.2269
H	-0.2475	-3.2001	-4.4646
H	0.4532	-2.8289	-6.5877
H	1.3000	-0.7294	-7.1803
H	1.1361	1.0757	-5.7595
H	0.6171	0.5764	-3.4228
C	2.1865	2.2701	-0.2288
C	3.5155	2.0115	0.2069
C	3.4840	1.0501	1.1577
C	2.1250	0.6635	1.3345
C	1.6087	-0.2979	2.2246
C	0.2620	-0.6615	2.3756
C	-0.3008	-1.6511	3.2500
C	-4.6114	1.0565	-0.1496
C	-1.6420	-1.6998	3.0143
C	-1.9548	-0.7383	2.0017
C	-4.2481	2.0947	-0.9857
C	-3.2114	-0.4336	1.4519
C	-3.4422	0.6238	0.5393
C	-2.8631	2.3226	-0.7966
C	-1.8169	3.0997	-1.3481
C	-1.6120	4.2301	-2.1834
C	-0.2762	4.4669	-2.2480
C	0.3904	3.4594	-1.4676
C	1.7467	3.2290	-1.1506
C	2.7752	4.0739	-1.8408
C	2.9882	4.0073	-3.1966
C	3.9471	4.7831	-3.8405
C	4.7106	5.6549	-3.0951
C	4.5358	5.7292	-1.7468
C	3.5701	4.9572	-1.1383
C	2.6085	-0.9636	3.1079
C	2.6932	-0.7012	4.4602
C	-4.3874	-1.2786	1.7708
C	3.6848	-1.2158	5.2559
C	-4.4584	-2.6279	1.3786
C	4.6450	-2.0377	4.6900
C	-5.6017	-3.3666	1.5035
C	4.5931	-2.3411	3.3559
C	-6.7271	-2.8097	2.0582
C	3.5824	-1.8252	2.5885
C	-6.6889	-1.4988	2.4763
C	-5.5443	-0.7703	2.3199
C	0.5570	-2.8020	-1.2701
C	1.7890	-3.1822	-1.7980
C	2.5744	-4.1091	-1.1052
C	2.1578	-4.6096	0.1078
C	-4.5049	-2.0019	-2.0435
C	0.9449	-4.2179	0.6452
C	0.1609	-3.3115	-0.0448
C	-4.6879	-3.3768	-2.1312
C	-2.1119	-2.3206	-2.1314
C	-3.2182	-1.4796	-2.0468
C	-3.6034	-4.2140	-2.2098
C	-2.3140	-3.7084	-2.2135
C	0.1063	-1.3439	-3.7641
C	0.0790	-2.3616	-4.7230
C	0.5201	-2.1081	-5.9999
C	0.9722	-0.8689	-6.3582
C	0.9886	0.1463	-5.4236
C	0.5488	-0.0816	-4.1199
N	1.3467	1.4151	0.4777
N	-0.7682	-0.1136	1.6260
N	-2.4136	1.4263	0.1423
N	-0.5760	2.6798	-0.9211
O	-0.4947	-0.2597	-1.3895
F	2.2770	3.1628	-3.9645
F	4.1444	4.6743	-5.1542
F	3.4159	5.0920	0.1933
F	1.8003	0.1198	5.0276
F	3.7329	-0.9494	6.5738
F	-5.6396	-4.6414	1.0687
F	5.6111	-2.5608	5.4722
F	-7.8537	-3.5263	2.1787
F	5.5319	-3.1436	2.8304
F	-7.7820	-0.9375	3.0379
F	3.5394	-2.1496	1.2922
F	-3.3727	-3.2178	0.8552
F	-5.5678	0.5224	2.7446
*