! UKS B3LYP ma-def2-SVP OPT NumFreq
%basis
NewGTO Pt "ma-def2-TZVP" end
end 

%scf
  maxiter 200
end

%CPCM SMD TRUE
    SMDSOLVENT "ACETONITRILE"
END

%pal 
	nprocs 16
end
* xyz 0 1
H	6.9124	-2.7710	1.7926
H	6.0526	-4.4945	-1.7408
H	8.6542	-4.1720	0.3131
H	0.7441	3.7371	-3.8837
H	-1.5848	4.1674	-3.0739
H	0.7945	-3.3103	3.1069
H	2.9416	-3.2853	1.8619
H	4.8062	-0.1698	-2.4493
H	3.6579	1.6957	-3.6408
H	-2.2482	-0.6262	4.5216
H	-1.5876	-3.9756	2.3354
H	5.0510	-1.4039	1.5883
H	4.1990	-3.0957	-1.9802
H	-2.2747	-0.1073	-2.1151
H	-3.0507	-1.6060	-3.7232
H	0.3732	-3.7485	-3.3890
H	1.1431	-2.2487	-1.7779
H	-0.4699	3.1172	1.0003
H	0.4996	4.7124	2.3857
H	3.7864	2.4121	2.7566
H	-4.4507	1.5242	0.9989
H	2.8225	0.8089	1.3772
H	-3.8393	-0.3072	2.5474
H	3.7676	4.4285	3.8787
H	2.9751	5.5889	3.1110
H	2.3247	4.8895	4.3961
H	-4.8330	1.7059	-1.7260
H	-6.7282	3.0320	-1.9695
H	-4.6871	6.2372	-0.6611
H	-2.7634	4.9372	-0.4669
Pt	0.2598	0.3627	-0.3228
C	6.3491	-2.8595	1.0320
C	0.8251	2.1827	-2.4253
C	6.6524	-3.8030	0.0671
C	0.2961	3.2670	-3.1915
C	-0.9895	3.5066	-2.7388
C	-1.2674	2.5801	-1.6724
C	-2.3922	2.3349	-0.8572
C	-2.4843	1.3482	0.1773
C	7.8377	-4.7102	0.2443
C	-3.2793	0.0698	1.8790
H	-7.4360	5.6127	-2.4044
C	-1.9305	-0.3208	1.5855
H	-7.8638	5.2460	-0.9062
C	-1.1511	-1.3585	2.1728
C	0.1692	-1.7219	1.8113
C	1.0164	-2.7346	2.3840
H	-3.6776	-5.4970	6.0653
C	2.1984	-2.7165	1.6995
C	2.1316	-1.6944	0.6923
C	3.1488	-1.3404	-0.2609
C	3.0409	-0.3401	-1.2397
C	3.9341	0.1583	-2.2627
C	3.3031	1.1893	-2.9200
C	2.0129	1.3596	-2.3210
C	-1.8006	-2.1601	3.2477
C	-2.3149	-1.5674	4.4050
C	-2.5434	-4.3060	4.0974
C	-1.9271	-3.5476	3.1123
C	4.4008	-2.1408	-0.1897
C	5.2401	-2.0420	0.9102
C	5.8455	-3.8723	-1.0547
C	4.7327	-3.0434	-1.1953
C	-3.6129	1.0757	1.0276
C	-0.4935	-1.0259	-1.7490
C	-1.7366	-0.8499	-2.3598
C	-2.2012	-1.7446	-3.3214
C	-1.4269	-2.8448	-3.6981
C	-0.1726	-3.0173	-3.1247
C	0.2846	-2.1181	-2.1628
C	-1.9484	-3.8587	-4.6175
C	1.0663	1.7763	1.0343
C	0.3976	2.9605	1.3554
C	0.9774	3.9165	2.1838
C	2.2404	3.7269	2.7212
C	2.9162	2.5608	2.4042
C	2.3388	1.6014	1.5773
C	-3.5983	3.1842	-1.0603
C	2.8818	4.7464	3.6018
C	-4.7929	2.6301	-1.5101
C	-5.9241	3.4214	-1.6453
C	-5.9042	4.7635	-1.3200
N	-0.1371	1.8277	-1.5434
C	-4.7208	5.3141	-0.8827
N	-1.4971	0.4741	0.5610
C	-3.5731	4.5364	-0.7596
N	0.8887	-1.1233	0.8064
N	1.9213	0.4319	-1.3356
N	-2.3721	-4.7181	-5.1537
C	-7.1496	5.6139	-1.4666
H	-3.2616	-1.9228	6.1720
H	-6.9528	6.5313	-1.1854
H	-3.1763	-4.4513	7.1679
H	-4.6051	-4.2583	6.4731
H	7.9067	-5.3119	-0.5253
H	7.7259	-5.2381	1.0627
C	-2.9224	-2.3429	5.3904
C	-3.0412	-3.7190	5.2504
H	-2.6242	-5.2450	3.9800
C	-3.6814	-4.5546	6.3341
*