! UKS B3LYP ma-def2-SVP OPT NumFreq
%basis

end 

%scf
  maxiter 200
end

%CPCM SMD TRUE
    SMDSOLVENT "ACETONITRILE"
END

%pal 
	nprocs 16
end
* xyz 0 3
Co	-0.6282	-0.6422	-0.3055
P	0.9226	-0.9753	-1.8573
H	0.8263	-1.1293	-4.7558
C	1.0206	0.6786	-5.6243
C	1.6284	-1.2076	3.1094
H	0.9741	0.3731	-6.5006
C	1.9373	0.0726	2.8546
C	1.1684	0.4816	1.7164
H	0.3522	4.2237	-0.0260
C	1.0804	1.7694	1.1945
H	-1.3317	4.0722	-1.7796
H	-4.3225	-0.2380	-3.6147
H	-4.4304	-2.5181	-2.6860
H	-3.2572	-4.7426	-0.3200
H	-1.6862	-5.1870	1.5255
H	-0.2921	2.2491	3.2493
H	0.2659	4.6226	6.4188
H	-2.9475	1.8300	5.4321
H	-2.4086	2.2744	4.0297
H	-1.6422	1.1836	4.8536
C	1.7812	-5.5203	4.2994
C	1.4748	-4.7274	3.2099
C	5.2262	6.3119	3.4015
C	3.3546	4.8171	3.2030
C	3.7540	4.3853	1.9785
C	2.9935	3.3904	1.3156
H	0.6661	-5.7400	-4.6687
C	1.8601	2.8577	1.8572
H	-1.2470	-4.4724	-4.3530
C	1.4183	3.3374	3.1263
H	-1.1374	-2.4751	-3.1587
C	1.7380	4.7388	5.0885
C	2.2047	4.3146	3.8202
C	0.9841	0.2165	-3.2572
C	2.5841	-0.9349	-1.1173
C	0.0981	-2.9296	2.0680
C	0.9276	-0.2228	-4.5778
C	3.5323	0.0473	-1.4152
C	0.7010	-1.6671	2.1290
C	4.7579	0.0423	-0.7628
C	5.0609	-0.9324	0.1677
C	4.1368	-1.9121	0.4665
C	2.8988	-1.9070	-0.1621
C	1.9539	-3.3816	-2.9056
C	0.1862	2.1380	0.1821
C	1.8858	-4.5355	-3.6490
C	-0.0604	3.4435	-0.3168
C	-0.9929	3.3601	-1.2831
C	-1.3740	1.9815	-1.4149
C	-2.3363	1.4437	-2.2969
C	-2.7050	0.1054	-2.2950
C	-3.7678	-0.5890	-2.9564
C	-3.8218	-1.8540	-2.4488
C	1.1809	2.0244	-5.3761
C	-2.7714	-1.9752	-1.4843
C	1.2498	2.4789	-4.0716
C	-2.2525	-2.9094	-0.5622
C	1.1618	1.5775	-3.0214
C	-2.5771	-4.1795	-0.0262
C	-1.7095	-4.4244	0.9960
C	-0.8443	-3.2983	1.1070
C	0.3987	-3.8740	3.1947
C	-0.3801	-3.8740	4.3377
C	-0.0903	-4.6542	5.4267
O	4.0172	5.7655	3.9509
C	1.0024	-5.4774	5.3992
F	1.3154	-6.2321	6.4636
F	2.8739	-6.3116	4.2719
F	2.2943	-4.7661	2.1378
C	0.2194	2.8854	3.6960
C	-0.2008	3.3677	4.8931
C	0.5640	4.3020	5.5980
C	-2.1578	1.9916	4.9110
C	-2.9367	2.3678	-3.3059
C	-3.7122	3.4687	-2.9868
C	-4.1788	4.3499	-3.9512
C	-3.8890	4.1227	-5.2574
H	1.9647	-1.7126	3.8123
C	-3.1858	3.0117	-5.6253
H	2.5401	0.6003	3.3296
C	-2.7199	2.1658	-4.6607
C	0.8230	-2.5837	-2.6949
H	5.5741	6.9810	3.9946
H	5.8738	5.6124	3.2927
H	5.0377	6.7083	2.5464
C	0.7059	-4.9496	-4.1792
H	4.5179	4.7363	1.5813
C	-0.4366	-4.1896	-3.9933
H	3.2758	3.0900	0.4814
C	-0.3735	-2.9953	-3.2638
H	2.2536	5.3322	5.5848
H	3.3439	0.7038	-2.0468
N	0.4286	-0.6069	1.2683
H	5.3831	0.7038	-0.9544
N	-0.6558	1.2361	-0.4872
H	5.8879	-0.9298	0.5939
N	-2.1146	-0.7796	-1.4295
H	4.3427	-2.5736	1.0857
N	-1.1872	-2.3926	0.1206
H	2.2711	-2.5610	0.0530
H	2.7676	-3.1241	-2.5392
O	-1.3765	3.0117	5.5352
H	2.6555	-5.0380	-3.7861
F	-1.4637	-3.0963	4.3975
F	-0.8783	-4.6189	6.5219
F	-4.0044	3.7073	-1.6896
F	-4.9136	5.4104	-3.5620
F	-4.3083	4.9951	-6.1888
F	-2.9541	2.7718	-6.9179
F	-2.0125	1.0950	-5.0640
H	1.2432	2.6254	-6.0815
H	1.3552	3.3879	-3.8999
H	1.2232	1.8855	-2.1467
*