! UKS B3LYP ma-def2-SVP OPT NumFreq
%basis

end 

%scf
  maxiter 200
end

%CPCM SMD TRUE
    SMDSOLVENT "ACETONITRILE"
END

%pal 
	nprocs 16
end
* xyz 0 1
Co	-0.8158	-0.0961	-0.2582
H	-2.0321	5.7608	3.3083
C	-2.7884	-3.7809	5.4260
F	6.8734	-1.3689	1.7712
C	-3.5529	-3.0035	6.2554
H	-1.0219	6.9585	3.3135
H	-4.6495	0.6594	-3.0899
C	-3.8176	-1.7394	5.9268
F	7.4973	1.1129	2.5656
H	-0.5654	5.5449	3.8163
H	-2.8128	1.4335	-4.5437
C	-3.3260	-1.2128	4.7696
H	2.6624	1.4451	-3.4638
C	-2.9478	-1.0815	1.5845
C	-4.3362	-1.3091	1.4382
H	3.8887	0.9052	-1.3995
F	0.3097	0.5265	-8.1010
C	-4.7197	-0.8490	0.2207
H	2.3382	-0.8224	3.5010
F	-0.4515	-0.3490	-5.6814
C	-3.5664	-0.3340	-0.4253
H	0.1990	-1.5600	4.4001
C	-1.0949	-3.0168	-0.3072
H	-4.8926	-1.7095	2.0677
C	-1.0949	-4.3009	-0.8292
H	-5.5841	-0.8656	-0.1251
H	-1.3623	-2.8955	0.5751
C	-0.6924	-4.5085	-2.1294
C	-0.3034	-3.3856	-2.8786
H	-1.3677	-5.0185	-0.3007
C	-0.3440	-2.1630	-2.2948
H	-0.0252	-3.4786	-3.7599
C	-1.1408	2.0232	1.7339
H	-0.0928	-1.4287	-2.8093
H	-1.3704	1.3105	2.2853
C	-0.2494	-6.0185	-3.9083
H	-0.8572	-5.6215	-4.5390
H	-0.2062	-6.9654	-4.0605
H	0.6230	-5.6348	-4.0218
C	0.9283	2.5863	-7.1734
C	1.0579	3.3920	-6.1054
C	0.6690	2.9518	-4.8374
O	-0.7059	5.6711	1.8625
C	-3.1828	0.2291	-1.6587
C	-3.7446	0.6627	-2.8726
C	-2.7236	1.0946	-3.6845
C	-1.5000	0.9285	-2.9621
C	-0.1495	1.1461	-3.2933
C	0.1692	1.6693	-4.6597
C	0.0423	0.8936	-5.7800
C	0.4286	1.3288	-7.0275
N	-0.8572	1.7773	0.4711
F	3.1377	2.5082	1.6290
N	-0.7205	-1.9354	-1.0150
C	0.9175	0.8703	-2.4317
F	0.7824	3.7857	-3.7930
N	-1.8255	0.4334	-1.7441
F	5.6282	3.0315	2.4856
C	2.2923	1.1278	-2.6733
F	1.5171	4.6727	-6.2023
N	0.7919	0.3736	-1.1448
C	2.9730	0.8238	-1.5286
F	1.3496	3.0282	-8.3845
N	-0.0006	-0.6845	1.3619
C	2.0411	0.3620	-0.5673
N	-2.5200	-0.4918	0.4170
C	2.2788	-0.0068	0.7616
C	3.6645	0.2540	1.2754
C	4.0318	1.5149	1.6766
O	-0.7113	-5.7660	-2.5754
C	5.3067	1.8288	2.1122
F	-3.5394	0.0779	4.4916
C	6.2548	0.8255	2.1423
C	1.3307	-0.5001	1.6674
C	-1.1084	3.3272	2.2874
C	5.9280	-0.4138	1.7525
F	-4.5279	-0.9570	6.7610
C	1.5333	-0.8606	3.0394
H	-1.3164	3.4684	3.1844
C	-0.7680	4.3688	1.4767
C	4.6585	-0.7161	1.3269
F	-3.9985	-3.5318	7.4150
C	0.3529	-1.2610	3.5334
C	-0.4898	4.1146	0.1688
H	-0.2629	4.8090	-0.4066
F	-2.5318	-5.0634	5.7586
C	-0.6222	-1.1480	2.4984
C	-0.5465	2.8272	-0.2897
H	-0.3575	2.6744	-1.1867
F	-1.6243	-4.0550	3.4313
C	-2.0348	-1.3806	2.6094
C	-2.5372	-1.9586	3.8643
C	-1.1138	6.0116	3.1813
C	-2.3185	-3.2544	4.2478
F	4.3911	-1.9387	0.9710
*