! UKS B3LYP ma-def2-SVP OPT NumFreq
%basis

end 

%scf
  maxiter 200
end

%pal 
	nprocs 16
end
* xyz 0 1
C	2.8067	-1.1741	0.1995
C	3.4420	0.0557	0.1590
C	2.7650	1.2054	-0.2122
H	2.5948	4.1248	-1.4062
H	-2.6860	4.0499	-1.2199
C	3.4032	2.4317	-0.6118
Ni	0.0564	-0.0518	-0.1712
C	1.2151	2.5832	-0.9076
H	-4.0877	-2.6756	1.0084
H	-2.4633	-4.3896	0.3624
C	-1.2268	2.5536	-0.8045
H	2.7101	-4.3269	0.0271
C	2.5560	-3.4020	0.0677
C	-3.3905	2.3324	-0.3337
H	4.3643	-2.5885	0.5553
C	-2.6733	1.1409	0.0231
H	4.3246	2.6146	-0.5661
C	-3.2795	-0.0244	0.4703
C	4.9171	0.1236	0.3957
H	-4.3104	2.4839	-0.2143
C	5.8023	-0.6428	-0.3487
H	-6.7500	1.5781	2.9083
H	-5.4278	-1.2873	-0.4997
C	-5.6855	-0.7194	0.2041
H	5.4718	-1.2159	-1.0166
H	-7.6507	-1.1932	0.1454
C	-7.0164	-0.6550	0.5820
C	7.1712	-0.5731	-0.1179
H	7.7563	-1.1166	-0.6144
C	-7.4201	0.1898	1.5914
H	-8.3227	0.2247	1.8461
C	6.8159	1.0799	1.5626
C	7.6748	0.2839	0.8317
C	-6.4818	0.9859	2.2288
C	5.4400	0.9963	1.3550
H	8.6013	0.3274	0.9819
C	-4.7298	0.0487	0.8564
H	4.8594	1.5311	1.8644
C	-2.5031	3.1964	-0.8706
N	-0.0337	4.5272	-1.6419
H	-4.5132	1.4510	2.3019
C	-5.1445	0.9110	1.8629
N	-0.4055	5.3772	-0.9003
C	-2.6119	-1.2437	0.4533
N	-1.2907	-1.4091	0.0606
N	-0.7435	6.2795	-0.3085
C	-3.2195	-2.5240	0.6842
N	1.4549	-1.3714	-0.0427
H	7.1598	1.6774	2.2009
C	-2.3244	-3.4594	0.3529
N	1.4016	1.3010	-0.4133
N	-1.3338	1.2782	-0.2901
C	-1.1129	-2.7853	-0.0205
C	2.4616	3.2625	-1.0589
C	0.0975	-3.3898	-0.2485
N	0.2518	-4.8024	-0.3912
C	-0.0237	3.1615	-1.0973
C	1.3114	-2.7331	-0.1356
N	-0.5620	-5.4590	-0.9387
N	-1.2366	-6.2535	-1.4217
C	3.4637	-2.4491	0.3293
*