! UKS B3LYP ma-def2-SVP OPT NumFreq
%basis

end 

%scf
  maxiter 200
end

%pal 
	nprocs 16
end
* xyz 0 1
C	-1.8223	3.0597	-2.8869
C	0.7806	-0.0015	-7.1921
H	1.6927	0.4826	-5.4417
Ni	-0.0905	0.4126	-0.0904
H	2.2531	-2.8966	2.9974
C	-1.3540	2.1331	-3.7487
C	-0.3730	-0.5095	-7.7492
H	1.5052	0.2496	-7.7541
H	-0.4382	-0.6216	-8.6902
H	1.0354	-1.3996	4.5343
C	-0.7202	1.1184	-2.9603
C	-0.0974	0.0073	-3.4989
C	-1.4329	-0.8545	-6.9364
H	-2.2317	-1.1982	-7.3175
C	-1.4790	2.6260	-1.5697
H	-2.0685	-0.9370	-5.0051
C	-1.3345	-0.7003	-5.5608
C	0.5913	-0.9124	-2.7165
C	1.4102	-1.7383	1.4150
N	0.5942	-0.6222	1.4280
C	1.2752	-2.0543	-3.2446
H	-1.7199	3.0188	3.9789
C	1.6983	-2.1664	2.7494
C	1.8359	-2.7040	-2.2068
H	-2.3553	4.4333	2.0508
C	1.0433	-1.3499	3.5842
C	1.4746	-1.9656	-1.0245
N	-0.8596	1.7120	1.1513
H	-2.2450	4.1626	-0.5271
C	0.3592	-0.3887	2.7735
N	0.7179	-0.8551	-1.3298
N	-0.7952	1.4193	-1.6067
C	1.8300	-2.3760	0.2529
H	-2.2935	3.8529	-3.1154
H	1.3243	-2.3074	-4.1598
H	-1.4287	2.1507	-4.6942
C	-0.3824	0.6525	3.3166
C	-0.6088	0.6802	4.8019
H	2.3656	-3.4921	-2.2456
C	-0.9020	1.6698	2.5370
C	0.0638	1.5842	5.6185
N	2.6819	-3.5229	0.2410
C	-1.5626	2.8268	3.0630
H	0.6670	2.2105	5.2364
C	-0.1442	1.5722	6.9948
N	2.8696	-4.2368	1.1688
C	-1.9178	3.5910	2.0141
C	-1.7155	-0.2093	6.7576
C	-1.0336	0.6934	7.5655
H	0.3339	2.1797	7.5453
C	-1.5090	2.8929	0.8349
N	3.1988	-5.0413	1.9390
C	-1.4947	-0.2156	5.3876
H	-2.3310	-0.8211	7.1436
H	-1.1817	0.7023	8.5023
C	-1.7989	3.3298	-0.4300
H	-1.9560	-0.8419	4.8417
C	-0.1691	-0.2011	-4.9918
C	0.8887	0.1439	-5.8186
*