! UKS B3LYP ma-def2-SVP OPT NumFreq
%basis

end 

%scf
  maxiter 200
end

%pal 
	nprocs 16
end
* xyz 0 1
H	5.6807	-3.1014	-2.2033
H	5.3683	-3.4057	0.0330
H	4.1656	-4.1560	0.7785
H	5.7230	-3.3476	2.3871
H	0.0874	-5.4834	2.0173
H	-1.4686	-5.6602	2.3466
H	-0.1868	-6.0909	4.2816
H	-1.1031	-4.8026	4.5286
H	0.4529	-4.6258	4.1978
H	-3.1827	-4.5071	3.2215
H	-3.9575	-3.1077	3.1595
H	-5.0143	-4.6725	1.7428
H	-3.6528	-4.8708	0.9254
H	-4.4277	-3.4714	0.8620
H	1.7580	3.1391	3.8224
H	-2.1747	-3.3413	-3.2628
C	-0.9302	-3.6798	2.0624
C	4.5942	-3.2757	0.6349
C	-0.6691	-5.1057	2.5298
C	-0.3474	-5.1613	4.0162
C	-3.4013	-3.7379	2.6374
C	-4.1955	-4.2317	1.4352
N	1.9284	-4.1787	1.4942
Ni	-0.0054	0.0233	0.0307
H	5.4691	-0.2861	-1.7871
O	2.0247	-5.0881	0.6537
O	2.3155	-4.2608	2.6469
H	5.1514	-2.0695	-3.3063
H	4.3210	-2.6050	2.5922
H	5.5224	-1.8548	1.8483
H	-4.7008	2.8057	3.1422
H	-4.7397	1.2080	3.2423
H	-6.7919	2.0049	2.3720
H	-6.0561	1.1158	1.2643
H	-6.0180	2.7122	1.1629
H	-4.2727	4.4640	1.6090
H	-3.1019	4.9566	0.6323
H	-2.7270	5.7863	2.8154
H	-1.5450	4.7848	2.4156
H	-2.7150	4.2935	3.3906
H	-1.1483	4.5335	-3.3867
H	-0.2809	4.0598	-4.6427
H	0.1686	6.3320	-4.1719
H	1.5023	5.4757	-3.9463
H	0.6331	5.9505	-2.6888
H	2.9508	2.3283	-4.5655
H	1.7674	3.2730	-5.0833
H	1.8619	1.3128	-6.3979
H	0.4688	1.3570	-5.6117
H	1.6521	0.4123	-5.0925
H	2.7862	-0.1371	1.7897
H	3.4720	1.4315	3.4834
H	-0.0444	2.5960	2.2199
H	-1.0762	0.4527	-3.0092
H	-1.9961	-1.2144	-4.4634
H	-1.3953	-2.8867	-1.0000
C	2.7584	-0.5867	-1.1717
C	3.9502	-1.3647	-0.9092
C	3.6100	-2.3410	-0.0099
C	2.1868	-2.1289	0.2575
C	1.3149	-2.9043	1.0535
C	-0.0092	-2.7212	1.4447
C	-2.1084	-3.0407	2.2178
C	-1.9162	-1.6615	1.7354
C	-2.7806	-0.5804	1.8271
C	-2.6862	0.7306	1.3635
C	-3.5089	1.8862	1.7342
C	-2.9833	2.9547	1.0812
C	-1.9059	2.4432	0.2417
C	-1.1947	3.0962	-0.7863
C	-0.1380	2.6478	-1.5891
C	0.3376	3.2060	-2.8751
C	1.3623	2.4028	-3.2761
C	1.5455	1.4151	-2.2058
C	2.5733	0.4830	-2.0765
C	5.3646	-1.2081	-1.4412
C	5.7518	-2.1844	-2.5408
C	5.0852	-2.7199	1.9888
C	-4.7344	1.9708	2.6111
H	5.9967	-1.3167	-0.6868
C	-6.0150	1.9481	1.7787
C	-3.3064	4.3819	1.4116
H	6.6750	-2.0114	-2.8201
C	-2.5020	4.8530	2.6159
C	-0.2271	4.3453	-3.6961
C	0.5942	5.6436	-3.6194
C	1.9679	2.4091	-4.6440
C	1.4405	1.2711	-5.5141
C	2.2939	0.6182	2.0887
C	1.7454	2.4116	3.2109
C	0.7604	2.1047	2.3321
C	-1.2465	-0.4516	-2.7724
C	-1.8576	-2.5078	-2.9355
C	-1.4202	-2.2514	-1.7068
N	1.7165	-1.0300	-0.4091
N	-0.6498	-1.5352	1.2291
N	-1.6864	1.1069	0.4987
N	0.5736	1.5452	-1.2625
N	-4.0221	-0.8646	2.6062
N	-1.7038	4.4425	-1.1173
N	3.7101	0.6864	-2.9980
N	1.1002	0.9743	1.6234
N	2.7096	1.4745	3.0450
N	-1.0008	-0.9341	-1.5967
N	-1.7647	-1.3508	-3.6256
O	-3.9271	-0.8899	3.8284
O	-5.0546	-1.0566	1.9709
O	-2.8194	4.5511	-1.5938
O	-0.9545	5.4011	-0.8800
O	4.4117	1.6766	-2.7943
O	3.8707	-0.1055	-3.9113
*