! UKS B3LYP ma-def2-SVP OPT NumFreq
%basis
NewGTO Sb "ma-def2-TZVP" end
end 

%scf
  maxiter 200
end

%pal 
	nprocs 16
end
* xyz 0 1
Mn	0.8177	-0.2409	0.4942
Sb	-2.4908	0.7213	-1.4314
H	3.9276	2.6832	-2.2482
H	-2.7125	-2.8979	2.9492
H	3.7797	0.6218	-3.5188
H	-1.4341	-5.2538	2.1329
H	-4.5734	-5.1940	-1.2551
H	-0.5078	-4.7247	-1.4449
H	-2.8949	-7.0428	1.8148
H	-3.1522	-3.4018	-0.9793
H	1.2520	-3.9514	-2.9404
H	-4.4307	-7.0176	0.1308
H	1.1082	-2.0018	-4.7357
H	4.7445	-1.9703	-3.0335
H	5.1852	3.2234	-0.0213
H	2.1032	-2.7325	-6.7273
H	4.3694	-3.0333	-6.8269
H	5.6384	-2.6695	-5.0076
C	-1.1778	-2.1514	1.7241
C	-0.2380	-2.9357	-0.3816
C	-1.1340	-3.0412	0.6661
C	2.6137	2.6549	0.2110
C	-0.6985	-0.4837	3.1075
C	1.3197	-2.2144	-1.7582
C	2.5585	-0.1168	-1.9866
C	-2.1197	-4.1672	0.5766
C	3.4577	1.9178	-2.0057
H	2.4147	4.0879	2.5790
C	-2.0488	-2.2585	2.8286
C	2.6794	1.7304	-0.7976
C	3.3723	0.7887	-2.6995
H	5.0498	7.2029	0.1046
C	-2.0530	-5.2396	1.4386
C	2.2220	-1.3987	-2.4161
C	1.9553	3.2800	2.5178
C	-3.9368	-5.2097	-0.5771
H	2.7919	7.1415	0.1880
C	-0.0463	-3.9199	-1.3775
C	-2.9386	-6.3089	1.2466
H	1.7177	5.1304	0.1751
C	-3.0824	-4.1404	-0.4183
C	0.9133	-3.4932	-2.2049
C	1.9084	2.4281	1.3838
C	0.6779	1.5352	2.9603
C	-3.8586	-6.2947	0.2496
C	2.0282	-2.1247	-4.7864
C	2.8398	-1.8743	-3.6841
C	4.1954	-2.1042	-3.7718
C	2.6273	-2.5656	-5.9780
C	3.9714	-2.7514	-6.0345
C	4.7215	-2.5294	-4.9521
N	-0.3630	-1.0554	1.8965
N	2.1303	0.4785	-0.8153
N	1.1217	1.3320	1.6693
N	0.6299	-1.8900	-0.5987
F	-3.0439	-0.7562	-0.4862
F	-1.9061	2.2013	-2.3603
F	-3.2918	1.8123	-0.2596
F	-1.5737	-0.3625	-2.6068
F	-0.9069	0.7572	-0.4356
C	3.3254	3.9541	0.0928
F	-3.9649	0.5478	-2.5002
C	4.6080	6.3840	0.0855
C	3.2816	6.3525	0.1456
C	2.6471	5.1462	0.1414
H	0.2028	-0.5499	5.9639
H	-2.1416	-1.1026	4.4948
C	4.6913	4.0108	0.0165
C	5.3342	5.2233	-0.0046
H	-1.5466	2.7903	4.5271
H	1.0915	3.0423	4.3470
H	-2.0384	3.4092	6.6853
H	-1.3997	2.1131	8.4691
H	-0.2442	0.2234	8.1170
C	-0.1692	0.6722	3.6538
C	-0.5735	1.0911	5.0256
C	-0.2171	0.2675	6.0993
C	-1.7373	-1.2585	3.6720
C	-1.2778	2.2596	5.2410
C	1.2186	2.7131	3.4873
C	-1.5706	2.6218	6.5323
C	-1.1903	1.8501	7.6031
C	-0.5214	0.7257	7.3859
H	6.2605	5.2580	-0.0790
*