! UKS B3LYP ma-def2-SVP OPT NumFreq
%basis
NewGTO I "ma-def2-TZVP" end
end 

%scf
  maxiter 200
end

%pal 
	nprocs 16
end
* xyz 0 1
C	-1.7263	-2.8556	0.9327
C	-2.2246	0.0168	-4.3620
C	-2.9763	1.1711	-4.4582
C	-3.7038	1.4644	-5.6110
H	-4.1441	0.6769	-7.4142
C	-2.1932	-0.9034	-5.3939
H	-6.4039	3.2647	-6.3857
H	-6.3810	1.9184	-5.5826
H	-5.8899	1.9516	-7.0715
H	-4.3263	4.3509	-7.0610
C	-4.5930	3.5563	-4.4980
H	-3.5554	3.0831	-7.5708
H	-2.9594	3.9492	-6.4076
H	3.2673	0.6926	7.9295
H	-1.4790	-0.6554	-8.8885
H	-2.9268	-0.1298	-9.1775
H	-2.4599	-1.5058	-9.7654
H	-4.6859	-2.5169	-7.1812
H	-4.2974	-2.8574	-8.6607
H	-4.8910	-1.4482	-8.3110
H	-0.5488	2.5209	8.3187
H	-2.0207	-3.4074	-8.2654
H	2.0777	1.9621	9.1912
H	-2.2608	-3.2852	-6.7215
H	1.5710	3.4428	9.1016
H	2.9235	3.0342	8.4211
C	5.4438	-2.2462	6.0854
H	4.8044	-2.5745	8.6400
H	3.4205	-2.6147	7.9041
H	3.7656	-1.4203	8.8566
H	6.4018	-0.8772	8.1619
H	5.3847	0.3172	8.1615
H	6.3016	0.0657	6.9138
H	6.0688	-2.7736	6.5893
C	-2.6650	1.1763	0.5504
I	-4.2927	-4.3830	-0.8272
I	-1.7430	-4.4371	4.0276
Zn	0.1267	-0.1391	-0.0023
H	-0.9771	2.1873	0.9805
H	-0.1953	1.7560	-4.7540
H	1.7351	2.9207	-3.8184
H	4.2217	2.8456	0.9315
H	3.8247	1.6775	3.0388
H	0.5298	-2.1554	4.7080
H	2.5060	4.7176	-0.3831
H	5.1832	6.1808	-2.9461
H	4.2771	2.3078	-3.0502
H	1.5831	6.7379	-0.7054
H	1.8919	7.4660	-2.0584
H	1.9329	8.2658	-0.7108
H	5.3726	7.9759	-1.3859
H	4.2023	9.0132	-1.2622
C	2.9983	0.5354	7.0540
H	4.3411	8.1366	-2.5552
H	3.2601	6.5179	1.0010
H	3.8621	7.9620	0.8899
H	4.7815	6.7099	0.6772
C	-3.6567	0.5110	-6.6400
H	7.5310	3.8759	-3.1163
C	-2.9389	-0.6397	-6.5686
H	7.3247	5.3497	-3.6104
H	7.9219	4.2740	-4.5814
C	2.0331	2.7426	8.6343
C	-4.5133	2.7479	-5.7730
C	4.7404	-1.2631	7.0195
C	4.1239	-2.0437	8.2204
C	-5.9273	2.4423	-6.2468
C	5.8058	-0.3551	7.6200
H	6.2280	2.0337	-4.2212
C	-3.7689	3.6140	-6.7993
H	6.5610	2.6082	-5.6411
H	4.5764	4.7752	-5.7807
H	5.0686	2.3934	-5.2135
C	-2.9063	-1.6246	-7.7489
H	6.0700	4.8869	-6.2458
C	-2.3947	-0.9121	-9.0150
H	5.4909	5.9154	-5.2128
C	-4.3299	-2.1624	-7.9984
H	0.8712	1.5185	4.8464
C	-1.9809	-2.8172	-7.5108
H	3.6413	-1.3731	4.5242
H	0.7880	4.3648	7.0372
H	0.5781	3.4987	5.7475
H	2.0234	3.9195	6.1839
H	-0.1265	1.0383	8.0341
H	-0.7008	1.9272	6.8759
H	5.9119	-1.7590	5.4029
H	4.7923	-2.8225	5.6802
C	-1.4042	-0.1683	-3.0960
C	-0.3160	0.6856	-2.9365
C	0.1678	1.6181	-3.9091
C	1.2308	2.2589	-3.4002
C	1.4455	1.7071	-2.0477
C	2.4119	2.1926	-1.1603
C	2.5700	1.7263	0.1475
C	3.5617	2.2118	1.0955
C	3.3409	1.5692	2.2523
C	2.2334	0.6874	2.0606
C	1.6856	-0.1718	3.0423
H	-3.4697	-2.1310	-3.1148
C	0.7301	-1.1252	2.8504
C	0.2523	-2.0908	3.8236
C	-0.6791	-2.8888	3.2102
C	-0.8227	-2.3911	1.8626
H	-2.2620	-3.5663	1.2002
H	-2.9980	1.7630	-3.7417
H	-1.6901	-1.6822	-5.3183
H	-5.0007	4.4050	-4.6818
H	-3.7086	3.6943	-4.1506
H	-5.1202	3.0814	-3.8499
C	3.2746	3.3241	-1.6304
C	3.1020	4.5918	-1.0868
C	3.8163	5.6692	-1.5906
C	4.6982	5.4597	-2.6174
C	4.8961	4.1972	-3.1929
C	4.1686	3.1547	-2.6822
H	-1.0809	-2.5047	-7.3949
C	3.5750	7.0854	-0.9727
C	2.1127	7.4189	-1.1262
C	4.4533	8.1505	-1.6019
C	3.9007	7.0662	0.5427
C	5.9011	4.0732	-4.3378
C	7.2970	4.4242	-3.8689
C	5.9433	2.6431	-4.9069
C	5.4680	5.0022	-5.5057
C	2.2032	0.0308	4.4826
C	1.5686	1.0314	5.2237
C	1.9776	1.3038	6.5294
C	3.6437	-0.4581	6.3316
C	3.2287	-0.7096	5.0268
C	1.2718	2.4021	7.3241
C	1.1548	3.6611	6.4977
C	-0.1627	1.9272	7.6711
N	-1.2474	-1.3626	-0.9429
N	0.5020	0.7485	-1.8175
N	1.7761	0.7659	0.7669
N	0.0375	-1.3295	1.6648
O	-1.2944	1.3823	0.6395
H	-3.1247	1.8660	1.0367
H	-2.8846	0.3207	0.9220
H	-2.9328	1.2025	-0.3719
C	-1.9314	-2.3842	-0.3621
C	-2.9642	-2.8504	-1.2487
C	-2.9123	-2.0733	-2.3737
C	-1.8385	-1.1601	-2.1867
*