! UKS B3LYP ma-def2-SVP OPT NumFreq
%basis

end 

%scf
  maxiter 200
end

%pal 
	nprocs 16
end
* xyz 0 1
N	0.5439	-1.2898	1.2654
N	1.7974	1.1141	2.3419
N	0.3251	2.7815	0.4039
C	5.0090	5.7985	2.8835
H	-3.0844	0.8784	-2.9117
C	4.3269	6.8418	3.4899
C	2.9422	6.9020	3.6036
C	-3.5875	5.1036	-4.1619
C	2.2093	5.8211	3.0845
O	-1.5205	0.8529	2.3396
C	-3.3506	2.1727	-6.2964
C	2.2596	8.0304	4.3887
C	-3.7976	4.5187	-6.9967
C	2.9283	9.3848	4.0878
C	7.1169	4.5291	2.2219
C	0.7984	8.1735	4.0616
H	-0.3386	-10.5008	-6.5699
H	-2.0534	-8.9990	-6.8487
H	-3.4301	-7.0866	-7.2887
C	-3.5156	5.4708	-2.8198
H	-4.5696	-5.0974	-7.4316
H	-5.8278	-2.9962	-7.0885
H	-6.5650	-0.8411	-6.9327
H	1.4100	5.7985	0.3546
H	-5.9346	0.4885	-5.1032
H	-0.2759	5.3505	-1.3968
H	-4.5452	-0.3848	-3.4605
C	-3.0041	7.7296	-1.8571
H	4.3660	-3.0128	9.5703
H	-0.7272	-0.3060	3.7665
H	3.8571	-4.0831	8.4915
H	-1.9914	0.5549	4.2625
H	5.3406	-3.4920	8.3928
H	5.2746	-0.7934	7.7571
H	3.7973	-0.2831	7.4127
H	4.1888	-0.6399	8.9247
H	1.7955	-1.4696	7.8718
H	1.8720	-3.0398	8.1696
H	2.2823	-1.9882	9.3031
H	4.8364	7.5595	3.8491
H	1.2622	5.8151	3.1537
H	6.7878	3.7450	2.7077
C	-1.5122	1.3161	-1.4637
C	-2.4693	0.5341	-2.2763
H	6.8357	4.4731	1.2828
H	8.0961	4.5540	2.2676
C	-1.2866	-0.7727	-0.9311
C	-1.0071	-2.0554	-0.4366
C	-0.2106	-2.2912	0.6828
H	6.7181	5.1140	4.8064
C	-0.0562	-3.5042	1.4641
H	-3.2176	1.8927	-7.2276
C	0.8337	-3.2435	2.4423
H	-2.7783	1.6355	-5.7088
C	1.2321	-1.8600	2.3060
H	-4.2893	2.0421	-6.0475
C	2.1476	-1.2047	3.1473
H	-4.7250	4.5291	-6.6816
H	0.4288	8.9410	4.5482
C	2.4092	0.1840	3.1402
C	3.3752	0.8473	3.9548
H	0.6910	8.3145	3.0989
C	3.3303	2.1727	3.6651
H	-3.7727	4.2200	-7.9310
C	2.3630	2.3360	2.6248
H	0.3229	7.3583	4.3288
C	2.0703	3.5567	1.9807
C	1.1545	3.7492	0.9332
C	0.9677	4.9730	0.1975
C	0.0471	4.7282	-0.7571
C	-0.3590	3.3499	-0.6324
C	-1.2962	2.6959	-1.4782
H	-3.4203	5.4210	-6.9336
C	-0.5405	-5.2841	-1.1644
C	-0.3495	-6.4934	-1.8079
H	-2.4601	7.3189	-1.1551
H	-2.4422	7.9142	-2.6405
H	-3.3862	8.5697	-1.5249
C	0.0151	-8.9181	-3.7644
C	0.2807	-9.8350	-4.7449
C	-2.8862	0.8411	1.7987
C	-3.3478	-0.5984	1.9667
C	-2.5397	-1.1149	3.1565
C	2.9707	-2.0510	4.0770
C	3.7127	-3.1109	3.5590
C	4.5002	-3.9151	4.3710
C	4.5263	-3.6309	5.7381
C	3.8142	-2.5669	6.2898
C	3.0185	-1.8015	5.4366
C	5.2290	-5.1368	3.7706
C	4.1804	-6.2237	3.5179
C	5.8616	-4.8174	2.4437
C	6.2203	-5.7404	4.7432
C	2.8596	4.7614	2.4694
C	4.2289	4.7655	2.3533
Zn	0.3228	0.7917	0.9833
C	-2.0959	3.5334	-2.4320
C	-2.7813	4.6618	-1.9788
H	-0.5003	-4.3300	1.3137
H	1.1412	-3.8550	3.1010
C	2.3762	7.6985	5.8793
H	3.9500	0.4325	4.5872
C	-2.9344	3.9898	-4.6879
C	-4.1545	6.7589	-2.2610
C	-2.1631	3.2202	-3.7805
H	3.8421	2.8593	4.0750
C	-3.0012	3.5874	-6.1583
C	-4.9844	6.4685	-1.0381
H	0.0723	-5.0310	-0.4843
C	-1.5299	3.6537	-6.7839
H	0.3944	-7.0327	-1.5671
C	-5.0395	7.4600	-3.2867
H	0.5487	-8.9161	-2.9788
C	7.0417	7.0015	2.0479
H	0.9970	-10.4510	-4.6448
C	7.0817	5.8607	4.2821
H	-3.4701	1.4592	2.3039
H	-2.8896	1.1024	0.8431
H	3.6792	-3.2866	2.6245
H	-4.3191	-0.6378	2.1559
H	5.0471	-4.1806	6.3118
H	-3.1561	-1.1273	1.1541
H	2.4978	-1.0942	5.7984
H	-2.0205	-1.9197	2.9088
H	4.6299	-7.0721	3.3206
H	-3.1325	-1.3368	3.9188
H	3.6214	-6.3295	4.3150
H	3.6190	-5.9644	2.7580
H	5.1622	-4.5975	1.7934
H	6.4652	-4.0520	2.5465
H	6.3691	-5.5952	2.1287
H	6.9855	-5.1368	4.8431
H	5.7871	-5.8690	5.6116
H	6.5276	-6.6054	4.4001
H	4.6565	4.0479	1.9016
C	-2.2986	-0.7810	-1.9346
H	-4.1089	5.6388	-4.7490
H	3.3227	7.6238	6.1260
H	1.9565	8.4100	6.4050
H	8.0605	5.8047	4.2713
H	1.9245	6.8481	6.0610
H	6.8053	6.7091	4.6874
H	2.4338	10.1004	4.5389
H	-2.7394	4.8796	-1.0556
H	6.6741	6.9684	1.1397
H	6.7423	7.8229	2.4910
C	-1.7878	-2.9776	-1.3008
H	-1.6794	2.4694	-4.1036
C	-2.6311	-2.1873	-2.1753
H	-1.5611	3.3758	-7.7230
C	-3.4763	-2.8095	-3.1769
H	-1.1918	4.5726	-6.7247
C	-3.4103	-4.1744	-3.1777
H	-0.9362	3.0543	-6.2854
C	-2.5277	-4.9439	-2.3908
H	-5.7174	5.8628	-1.2767
C	-1.6302	-4.3880	-1.4796
H	-4.4218	6.0453	-0.3550
H	-5.3516	7.3044	-0.6844
C	6.5509	5.7840	2.8430
C	-1.2545	-6.9580	-2.8394
C	-2.3442	-6.1781	-3.0432
C	-3.1168	-6.1781	-4.2183
H	-5.4273	8.2668	-2.8867
C	-2.8520	-6.9912	-5.3079
H	-4.5006	7.7089	-4.0682
C	-1.8190	-7.9972	-5.0875
H	-5.7589	6.8564	-3.5674
C	-1.0203	-7.9806	-3.8880
C	-0.5115	-9.8557	-5.8922
C	-1.5291	-8.9638	-6.0572
C	-3.4856	-6.5390	-6.5152
C	-4.1733	-5.3422	-6.6040
C	-4.3029	-4.4565	-5.4700
C	-3.7979	-4.9771	-4.2996
C	-4.7106	-3.0564	-5.3751
C	-5.5574	-2.4714	-6.3454
C	-5.9999	-1.1958	-6.2581
C	-5.6236	-0.4055	-5.1740
C	-4.7922	-0.9303	-4.1974
C	-4.3062	-2.2371	-4.2649
H	2.9238	9.5425	3.1191
H	8.0200	6.9933	2.0029
C	-1.6201	0.0342	3.5050
H	3.8533	9.3724	4.4117
C	3.9184	-2.1976	7.7793
C	4.4116	-3.2866	8.6289
C	4.3251	-0.8805	7.9836
C	2.2924	-2.1707	8.3413
N	-0.8161	0.4526	-0.6496
*