! UKS B3LYP ma-def2-SVP OPT NumFreq
%basis

end 

%scf
  maxiter 200
end

%pal 
	nprocs 16
end
* xyz 0 1
H	2.1625	-2.1057	-1.1845
C	2.1231	-3.3727	7.1289
C	3.9954	1.3409	4.4330
H	3.4971	-1.8004	-2.0143
H	3.3029	-1.1755	-0.5537
C	0.2566	-0.4572	1.8287
C	5.5901	-1.8544	7.9436
C	-3.1624	-0.8070	-5.9408
C	-2.3541	-2.2676	-1.1228
C	-3.8448	-5.8714	1.0711
C	-1.8773	-2.7347	0.1123
C	1.5581	-0.1767	4.2835
C	-2.2310	1.4179	-3.4367
C	2.2810	-0.0785	5.4397
H	-8.3754	2.1900	-5.9659
C	-1.0722	-2.0059	0.9962
C	0.9446	1.8493	1.1906
C	3.1340	1.4091	3.2916
C	1.9159	0.7182	3.2023
C	0.4207	3.1785	-0.4823
C	3.3509	-3.2481	7.8637
C	-2.8837	0.1924	-3.6699
C	0.7338	-1.3436	4.1459
C	-2.2624	2.5550	-4.3185
C	2.3329	-1.0963	6.3981
C	-2.8133	-0.9340	-2.8253
C	-4.7343	0.8754	-5.2430
C	-3.6357	0.0717	-4.9547
C	-0.0560	3.6463	-1.7108
C	-4.8418	-0.0282	-7.4502
C	-3.5511	-4.5708	0.6273
C	-0.1262	6.1812	-1.9067
C	1.8403	-5.6090	8.0237
C	-1.4411	3.4886	-3.7915
C	3.4425	6.0733	-4.3753
C	1.0498	0.7095	2.0125
C	-0.9123	2.9503	-2.5808
C	-3.1897	-3.0105	-2.0408
C	0.0946	-1.4714	2.8581
C	1.5632	7.3056	-3.1823
C	3.4780	0.6788	5.5246
C	1.0977	3.9852	0.4933
H	6.0589	-2.4914	8.4683
C	3.5680	-0.9840	7.1041
C	-2.2319	-4.1266	0.5414
C	-1.2005	-4.9907	0.9256
C	0.4745	4.9700	-2.1933
C	3.7540	-4.3211	8.6613
C	-0.2404	8.7240	-2.0277
C	-5.3440	0.8539	-6.4948
C	1.4038	-4.5794	7.2242
C	1.6530	-2.2918	6.2475
C	0.6071	9.9226	-2.4494
C	0.7770	-2.3565	5.1207
C	-1.6002	8.8182	-2.7505
C	-3.2243	-1.7768	-8.3040
C	5.6418	0.2066	6.5979
C	-3.4879	-2.1882	-3.0752
H	8.0939	1.2424	6.4563
C	3.0185	-5.4849	8.7422
H	7.2216	-0.7048	7.5766
C	2.1975	6.0948	-3.4861
C	-3.7498	-0.8649	-7.1873
C	-1.4646	-6.2571	1.4340
C	-5.3093	-6.3352	1.1129
H	9.0106	2.7724	4.9783
C	-2.7981	-6.6753	1.4825
C	-0.4688	8.8094	-0.5128
C	0.4233	7.3851	-2.3841
C	4.1869	-2.0310	7.7352
C	1.4072	3.1809	1.5335
C	1.6360	4.9324	-2.9714
C	5.4216	1.7022	4.5682
C	-7.0561	1.6609	-8.2152
C	-6.5070	1.8131	-6.7931
H	7.7598	3.5311	3.1561
C	3.0109	6.3837	-5.8184
C	-2.7821	-0.9104	-9.4973
C	-6.0815	-5.4932	2.1163
C	-7.6550	1.5436	-5.8115
C	-0.3306	-7.0972	2.0417
C	-6.0049	3.2608	-6.6326
C	-0.1457	-6.5667	3.4820
C	4.1565	4.7145	-4.3564
C	-2.0449	-2.6255	-7.8491
C	-5.4489	-7.8011	1.5535
C	-5.9224	-6.2047	-0.2781
C	-4.3391	-2.7181	-8.7658
C	4.4690	7.1095	-3.8992
C	0.9648	-6.8957	1.3523
C	2.8199	0.9024	-2.3509
C	2.2915	-0.4041	-1.8939
C	2.8456	-1.4305	-1.3824
N	0.3135	1.8865	-0.0171
N	-0.4753	-0.7805	0.7339
C	-0.6347	-8.5627	2.0524
N	-2.1225	-1.0146	-1.6449
H	1.9255	8.1086	-3.5357
N	-1.4004	1.6834	-2.3773
O	0.8965	-0.4515	-2.1790
H	-1.0311	-3.2060	2.7684
Zn	-0.7080	0.3503	-0.9704
H	0.7296	-1.1267	-2.6485
H	-2.4234	-1.3722	-5.7471
H	3.4010	1.9491	2.5572
H	-2.7665	2.6339	-5.1207
H	1.3315	-6.4093	8.0839
H	-5.0768	1.4517	-4.5701
H	-5.2527	-0.0626	-8.3058
H	-4.2592	-3.9868	0.3824
H	-0.9186	6.2008	-1.3823
H	-1.2516	4.3433	-4.1580
H	4.5582	-4.2481	9.1628
H	0.6013	-4.6841	6.7274
H	-3.4762	-3.9097	-1.9371
H	0.2053	-3.1084	5.0265
H	0.1457	10.7515	-2.2042
H	1.4756	9.8841	-1.9969
H	1.2924	4.9116	0.4204
H	0.7446	9.9015	-3.4184
H	-2.1630	8.0598	-2.4873
H	3.3198	-6.2000	9.2892
H	-2.9916	-7.5458	1.8102
H	-2.0450	9.6559	-2.5031
H	-4.0355	-2.3954	-3.8222
H	-1.4575	8.7980	-3.7202
H	-0.2986	-4.7046	0.8376
H	5.5484	2.8700	2.8978
H	1.8446	3.4382	2.3358
H	2.0489	4.0962	-3.1513
H	-6.3395	1.8279	-8.8610
H	-7.4008	0.7512	-8.3373
H	-7.7799	2.3064	-8.3570
H	3.7979	6.3786	-6.4035
H	2.3739	5.7033	-6.1214
H	2.5863	7.2664	-5.8490
H	-2.4472	-1.4887	-10.2150
H	-3.5451	-0.3916	-9.8261
H	-2.0706	-0.3003	-9.2118
H	-7.3265	1.6343	-4.8915
H	-1.0137	8.0487	-0.2204
H	-7.9949	0.6348	-5.9481
H	0.3961	8.7886	-0.0495
H	-5.2751	3.4256	-7.2649
H	-0.9324	9.6449	-0.2990
H	-6.7407	3.8837	-6.8112
H	-5.6792	3.3941	-5.7185
H	4.0694	8.0031	-3.9301
H	-5.6771	-5.5908	3.0034
H	-6.0496	-4.5519	1.8456
H	-7.0133	-5.7938	2.1457
H	4.9434	4.7510	-4.9389
H	4.4368	4.5055	-3.4416
H	3.5448	4.0191	-4.6778
H	-1.7382	-3.1856	-8.5918
H	0.0299	-5.6034	3.4542
H	-1.3137	-2.0396	-7.5580
H	-0.9608	-6.7367	4.0002
H	-2.3213	-3.1966	-7.1023
H	0.6101	-7.0248	3.9042
C	7.5597	1.5869	5.7507
C	8.1155	2.4769	4.8602
C	6.2901	-0.7833	7.4059
H	-4.0028	-3.2926	-9.4835
H	-4.6296	-3.2737	-8.0121
H	-5.0965	-2.1907	-9.0961
C	6.2185	1.1751	5.6420
H	-5.0782	-7.9079	2.4553
H	5.2557	7.0823	-4.4832
H	-6.8528	-6.5101	-0.2556
H	4.7377	6.9044	-2.9792
C	6.0451	2.5531	3.6427
H	-5.4143	-6.7525	-0.9123
H	-5.8932	-5.2665	-0.5600
H	1.1855	-5.9418	1.3450
C	7.3655	2.9427	3.7896
H	1.6658	-7.3900	1.8264
H	0.8992	-7.2247	0.4318
H	-4.9618	-8.3785	0.9289
H	-6.3962	-8.0527	1.5570
H	-1.4823	-8.7169	2.5211
H	2.0822	1.4533	-2.6882
H	-0.7073	-8.8885	1.1320
H	3.2528	1.3604	-1.6015
H	0.0845	-9.0428	2.5142
H	3.4737	0.7575	-3.0677
C	-0.7328	-2.4169	2.3315
C	4.2747	0.1070	6.5496
H	2.1091	-0.0295	-0.9851
*