! UKS B3LYP ma-def2-SVP OPT NumFreq
%basis

end 

%scf
  maxiter 200
end

%pal 
	nprocs 16
end
* xyz 0 1
H	-0.9936	0.0712	5.6507
H	-0.6927	-5.1993	-0.2721
H	-0.3531	-1.8107	9.6656
H	0.8850	-2.0337	10.6023
H	0.7238	-0.6821	9.8266
H	2.9142	4.8278	1.0591
H	1.9361	-2.3397	4.3919
H	-3.8159	-3.3065	-1.9319
H	-0.9120	5.5784	1.9334
H	-4.8068	-5.3380	-2.4151
H	-1.6858	-7.2350	-0.7388
C	0.3434	3.3035	-0.3395
H	-5.3872	-7.5749	-3.0445
C	1.9684	-1.8420	-2.1932
H	-5.5463	-8.7566	-2.0256
C	1.8308	-2.7381	0.0205
H	-5.7655	-7.2771	-1.5523
C	2.1231	-4.1672	-1.8530
C	1.6438	-0.2565	-0.2901
C	1.9942	-4.0136	-0.4890
C	2.6519	0.5880	-0.1242
C	0.4272	4.2798	-1.3797
C	-1.2795	-2.4158	0.6597
C	0.1950	3.6394	-2.5482
C	-1.4558	-3.3527	1.7394
C	-0.0736	2.2714	-2.2244
C	-0.8883	-2.7993	2.8405
C	-0.4240	1.3141	-3.1792
C	-0.8174	0.0264	-2.8308
C	-0.4111	-1.5048	2.4658
H	3.5182	0.3282	-0.3427
C	-1.1742	-0.9772	-3.7840
C	-1.4816	-2.0922	-3.0889
C	0.1714	-0.6318	3.3648
C	-1.3182	-1.7794	-1.6903
C	0.4723	0.6845	3.0312
C	-1.5676	-2.6987	-0.6747
C	0.9624	1.6513	3.9695
H	3.7310	9.1085	2.4428
C	1.0054	2.8412	3.3335
H	3.4580	9.6986	3.8693
H	3.8341	8.1852	3.7066
C	0.5948	2.5991	1.9613
C	0.5841	3.5850	0.9933
C	2.1296	-3.1175	-2.6994
C	1.6889	7.4155	2.5595
C	1.8007	-1.6312	-0.8160
C	-0.4326	1.7071	-4.6222
C	0.7711	2.0470	-5.2664
C	0.7754	2.4074	-6.6172
C	-0.4133	2.4183	-7.3387
C	-1.6105	2.0974	-6.7126
C	-1.6019	1.7424	-5.3633
C	0.4229	-1.0587	4.7666
C	-1.4966	2.7772	-9.4406
C	-2.1651	-4.0204	-1.0198
C	1.4374	-1.9617	5.0805
C	-3.3882	-4.0938	-1.6805
C	1.7255	-2.3152	6.3952
H	3.5397	6.8390	1.9975
C	-3.9900	-5.3122	-1.9730
C	0.9710	-1.7645	7.4256
O	1.9813	8.5945	3.1824
C	-0.0436	-0.8738	7.1577
C	-0.3079	-0.5298	5.8315
C	-1.5246	-5.2225	-0.6862
C	0.5841	-1.6312	9.7855
C	0.9388	4.9638	1.4288
C	2.2650	5.3758	1.4387
C	2.6433	6.5861	1.9991
C	0.3477	7.0457	2.5283
C	-0.0135	5.8218	1.9580
N	0.2638	1.2652	1.7920
N	-0.6719	-1.2532	1.1297
O	1.3164	-2.1738	8.6877
C	-3.3602	-6.4884	-1.6016
N	0.0061	2.0484	-0.8571
C	-2.1178	-6.4449	-0.9705
C	-5.2561	-7.8469	-2.1324
N	-0.8943	-0.4754	-1.5293
O	-0.2914	2.7772	-8.6551
F	2.2736	-5.4278	-2.3395
H	1.7427	-2.6212	0.9391
H	2.4950	1.4406	0.2111
Co	-0.1878	0.3474	0.1030
C	3.3634	8.9235	3.3105
H	1.9748	-1.1131	-2.7717
H	-1.8771	-4.1795	1.6901
H	-0.8217	-3.1896	3.6836
H	2.0178	-4.7506	0.0763
H	1.2053	1.4882	4.8521
H	0.6077	5.1855	-1.2729
H	1.2504	3.6584	3.7033
H	-0.3015	7.6073	2.8849
H	0.2058	4.0147	-3.3978
H	-1.1935	-0.8793	-4.7093
H	-1.7460	-2.9081	-3.4455
O	-3.8738	-7.7490	-1.8037
H	2.2414	-3.2507	-3.6131
H	1.5707	2.0321	-4.7898
H	1.5729	2.6413	-7.0330
H	-2.4080	2.1191	-7.1875
H	-2.4059	1.5222	-4.9492
H	-1.2860	3.0016	-10.3494
H	-1.8964	1.9043	-9.4110
H	-2.1114	3.4232	-9.0856
H	2.4155	-2.9108	6.5826
H	-0.5444	-0.5080	7.8496
*