! UKS B3LYP ma-def2-SVP OPT NumFreq
%basis

end 

%scf
  maxiter 200
end

%pal 
	nprocs 16
end
* xyz 0 1
C	0.0589	3.3079	-0.4921
C	-2.0393	2.5575	-0.1334
C	-0.3107	4.6128	-0.5045
C	-2.5316	3.8460	-0.0803
C	-1.6817	4.8699	-0.2588
C	5.1831	3.4275	4.6822
N	0.1256	0.3931	2.0578
N	2.8566	0.7070	-3.7555
H	-4.4659	-2.4679	-0.5040
N	1.8748	0.7414	-0.1996
H	0.6738	-0.0957	-5.1171
N	-0.7708	2.2735	-0.3133
H	-6.5108	-1.6906	8.2019
H	-2.0785	-3.4380	-3.7721
H	-1.5747	-1.0807	-4.8322
H	4.8973	-0.5217	-5.2658
H	-5.9819	0.3722	7.2931
H	-3.5671	-4.5441	-5.1305
H	-4.9857	-0.9462	-2.5925
H	-4.9263	-3.4977	4.9846
H	-4.8700	-4.3946	1.6471
H	-0.9603	-3.1181	0.6176
H	2.6395	-1.8535	0.0355
H	6.0169	3.6113	-7.0045
H	7.0173	1.2661	-2.9235
H	-0.2979	-5.2974	0.6672
H	3.4360	-4.0015	-0.0732
H	6.4654	2.0299	3.9773
H	1.9925	-5.7459	0.2186
C	-2.0604	-0.5172	2.6867
C	-3.6783	-1.6816	1.2715
C	0.7553	-0.0568	-2.9785
C	-3.7933	-1.9731	-0.0909
H	8.9322	2.5276	-2.8278
C	-2.3799	-1.4111	-2.1288
C	-1.2390	-0.9058	-2.7309
C	-3.3756	-2.0852	-3.0354
C	-2.4723	-0.9163	1.4119
C	-4.0341	-1.3483	3.6180
H	8.8346	4.7220	-2.1520
C	0.2429	-0.2810	-4.3131
C	-4.4826	-1.9073	2.4215
H	6.8245	5.6726	-1.5701
C	-2.6768	-1.3647	-0.7198
C	-4.7819	-1.4753	4.9009
C	-2.9654	-3.1599	-3.8054
H	5.7914	3.8849	5.2161
C	-0.9940	-0.8191	-4.1544
C	-3.8571	-3.8251	-4.6190
C	-4.6989	-1.6682	-3.1038
C	-5.1318	-2.7160	5.4425
C	5.7245	2.7055	-2.3149
C	5.1145	0.3139	-5.6127
C	-0.0589	-3.3079	0.4921
C	5.7821	2.7818	-6.6575
C	2.0393	-2.5575	0.1334
C	6.9684	2.1554	-2.6533
C	0.3107	-4.6128	0.5045
C	2.5316	-3.8460	0.0803
C	5.5849	2.3244	3.9245
C	1.6817	-4.8699	0.2588
C	6.0909	1.6338	-7.3728
C	-5.1831	-3.4275	-4.6822
N	-0.1256	-0.3931	-2.0578
C	5.7630	0.4051	-6.8311
H	-6.0169	-3.6113	7.0045
N	-2.8566	-0.7070	3.7555
H	-7.0173	-1.2661	2.9235
C	8.1150	2.9058	-2.5946
N	-1.8748	-0.7414	0.1996
C	5.6821	4.0149	-1.8970
N	0.7708	-2.2735	0.3133
H	-6.4654	-2.0299	-3.9773
C	8.0556	4.2152	-2.1906
C	6.8583	4.7832	-1.8424
Zn	-0.0000	0.0000	0.0000
H	4.4659	2.4679	0.5040
H	-0.6738	0.0957	5.1171
H	-8.9322	-2.5276	2.8278
H	2.0785	3.4380	3.7721
H	1.5747	1.0807	4.8322
H	-4.8973	0.5217	5.2658
H	-8.8346	-4.7220	2.1520
H	-6.8245	-5.6726	1.5701
H	3.5671	4.5441	5.1305
H	4.9857	0.9462	2.5925
H	4.9263	3.4977	-4.9846
H	-5.7914	-3.8849	-5.2161
H	4.8700	4.3946	-1.6471
H	0.9603	3.1181	-0.6176
H	-2.6395	1.8535	-0.0355
H	6.5108	1.6906	-8.2019
H	5.9819	-0.3722	-7.2931
H	0.2979	5.2974	-0.6672
H	-3.4360	4.0015	0.0732
H	-1.9925	5.7459	-0.2186
C	2.0604	0.5172	-2.6867
C	3.6783	1.6816	-1.2715
C	-0.7553	0.0568	2.9785
C	-5.7245	-2.7055	2.3149
C	3.7933	1.9731	0.0909
C	2.3799	1.4111	2.1288
C	-5.1145	-0.3139	5.6127
C	1.2390	0.9058	2.7309
C	-5.7821	-2.7818	6.6575
C	3.3756	2.0852	3.0354
C	2.4723	0.9163	-1.4119
C	-6.9684	-2.1554	2.6533
C	4.0341	1.3483	-3.6180
C	-0.2429	0.2810	4.3131
C	4.4826	1.9073	-2.4215
C	2.6768	1.3647	0.7198
C	-5.5849	-2.3244	-3.9245
C	-6.0909	-1.6338	7.3728
C	4.7819	1.4753	-4.9009
C	2.9654	3.1599	3.8054
C	0.9940	0.8191	4.1544
C	-5.7630	-0.4051	6.8311
C	-8.1150	-2.9058	2.5946
C	-5.6821	-4.0149	1.8970
C	-8.0556	-4.2152	2.1906
C	-6.8583	-4.7832	1.8424
C	3.8571	3.8251	4.6190
C	4.6989	1.6682	3.1038
C	5.1318	2.7160	-5.4425
*