! UKS B3LYP ma-def2-SVP OPT NumFreq
%basis

end 

%scf
  maxiter 200
end

%pal 
	nprocs 16
end
* xyz 0 1
C	6.0151	-1.1220	6.2501
C	6.6528	-1.1067	5.0135
H	-8.5450	-3.4405	-5.0842
Zn	0.0947	0.5810	-0.6853
H	-2.3969	0.7855	1.5090
H	-2.9660	1.2809	0.1260
H	-3.9615	2.8760	1.2119
H	-3.1671	2.5406	2.5318
H	-1.5367	2.1642	-5.1526
H	-7.4875	-5.1841	-4.0060
H	-7.7328	-4.3469	1.0798
H	8.7578	4.7861	3.3718
H	2.2389	-1.4677	3.5317
H	7.3250	4.0897	5.0582
H	-7.7526	-1.3064	-4.8934
H	-4.8729	-7.1031	0.7136
H	-7.0032	-6.4989	1.3894
H	-2.2413	-3.5339	1.3458
H	0.4521	-4.5018	1.9097
H	-6.3966	-2.8285	-0.0037
H	-0.2204	-5.2340	5.7602
H	-0.5029	-1.5381	4.3572
H	-0.5528	-3.0334	6.1164
H	0.3532	-5.9637	3.6971
H	-3.0861	0.3080	-4.6988
H	-5.5941	-4.7885	-2.7132
H	-5.8717	-0.8775	-3.5854
H	-3.5015	-5.5592	-0.3143
C	-2.4450	1.5408	0.9020
C	-3.0804	2.7045	1.5800
C	-0.9405	-1.9670	0.7829
C	-1.5340	1.6086	-4.5217
C	2.9492	0.1146	2.4540
C	-7.1568	-4.3187	-3.9198
C	-6.8892	-4.6003	0.7807
C	2.1366	-0.9057	2.7980
C	-7.3222	-2.0041	-4.4509
H	6.4720	-0.4781	3.1011
C	-4.8184	-4.0422	-0.2984
H	6.5668	2.7672	0.6758
C	-5.1770	-6.2364	0.5680
C	0.0306	-1.8978	1.8057
C	-6.4507	-5.8729	0.9794
C	1.3770	2.8325	-2.3623
C	-7.7905	-3.2728	-4.5662
C	-2.0397	-2.8733	0.7236
C	-2.7426	-2.5917	-0.4146
C	-3.9723	-3.0679	-1.0225
C	-5.5573	-2.7991	-3.0143
C	0.2250	-4.1830	2.7531
C	-4.3508	-2.5021	-2.1916
C	-6.0865	-3.6927	0.1400
C	-2.5173	-0.9428	-2.2074
C	-0.1520	-4.6311	5.0541
C	2.5230	2.4228	-0.5458
C	8.0317	4.2420	3.1698
C	-0.3343	-2.4394	4.1999
C	7.1735	3.8247	4.1798
C	-2.0567	-1.5125	-1.0322
C	6.0869	3.0117	3.8778
C	0.4435	2.7109	-3.4036
C	-0.3714	-3.3406	5.2571
C	-1.9603	0.1326	-2.9340
C	-0.6227	1.7725	-3.4399
C	0.1662	-5.0625	3.8309
C	-2.3703	0.6190	-4.1918
C	-6.0259	-4.0844	-3.1402
C	4.1615	0.7023	2.9217
C	-0.0477	-2.8644	2.9248
C	-6.1953	-1.7455	-3.6689
C	4.6741	1.7827	2.2476
C	2.9580	1.7891	0.6275
H	-1.3828	3.5661	-0.5073
C	2.4062	0.6959	1.2706
H	-0.2999	3.6698	0.6294
C	1.0834	-0.9646	1.8223
C	-4.3610	-5.3172	-0.0565
H	-1.7896	4.1294	2.1593
H	-2.6812	4.5633	0.9327
H	-0.8538	6.0471	-6.1530
H	0.9950	5.8807	-7.4970
H	2.3627	2.9068	-5.1989
N	-0.9692	-1.1374	-0.3167
N	1.4672	1.9914	-1.2791
N	-0.8972	0.8469	-2.4798
N	1.2769	0.0327	0.8948
O	-1.1510	1.9312	0.5098
O	-3.6322	-1.4894	-2.7901
H	2.6041	4.3035	-7.0164
C	4.8029	0.1146	4.0741
H	2.5679	4.5211	-2.8565
C	6.0468	-0.4883	3.9272
H	3.8282	4.0487	-0.8160
C	5.8601	2.6149	2.5642
H	-1.1272	4.6466	-4.3568
O	4.0921	2.3255	1.1884
C	-1.1697	3.3062	0.4020
C	-2.1964	3.8259	1.3340
C	-0.2043	5.4096	-5.9648
C	3.1020	3.5661	-1.1405
C	0.8947	5.3161	-6.7644
C	1.7077	3.5392	-5.3861
H	3.3336	0.5038	5.4089
H	4.3445	-0.5280	7.2231
H	8.3779	4.1255	1.1814
C	1.8517	4.3764	-6.4748
H	6.4198	-1.5355	6.9763
H	7.4841	-1.5099	4.9150
C	2.4091	3.8259	-2.2591
C	0.5932	3.6378	-4.5761
H	5.5139	2.7314	4.5543
C	-0.3648	4.5761	-4.8840
C	4.1652	0.0993	5.3107
C	6.7183	3.0322	1.5542
C	7.8033	3.8464	1.8561
C	4.7712	-0.5191	6.3970
*