! UKS B3LYP ma-def2-SVP OPT NumFreq
%basis
NewGTO Pd "ma-def2-TZVP" end
end 

%scf
  maxiter 200
end

%pal 
	nprocs 16
end
* xyz 0 1
H	-9.5901	-6.2127	2.5755
H	1.8913	3.6614	-3.0106
H	4.9800	2.0186	-1.4150
H	-9.0239	-7.1419	1.4470
H	-4.1446	4.4625	-4.6854
C	4.1600	-2.8346	5.8684
H	8.5095	7.2949	-2.9199
C	-2.6103	-1.5041	-0.5179
H	9.5901	6.2127	-2.5755
C	-2.4559	-2.3137	0.5916
H	9.0239	7.1419	-1.4470
C	-3.5367	-3.3295	0.8638
C	2.5680	-1.7320	3.8401
C	-4.3083	-5.6172	0.8812
H	-0.2431	3.0916	-4.0509
C	-3.3064	-4.6882	0.6766
H	-3.8774	1.0079	-6.7195
C	-1.7668	1.1590	-2.7118
Pd	-0.0000	0.0000	0.0000
C	3.8391	-3.5878	4.7575
C	-0.5303	1.7364	-2.4424
H	-2.5827	0.1279	-5.0318
C	2.6103	1.5041	0.5179
H	6.6491	3.5587	-1.7787
C	2.4559	2.3137	-0.5916
C	3.0678	-3.0430	3.7538
C	-2.3099	0.0868	-2.0039
C	3.5367	3.3295	-0.8638
C	5.0175	-3.4315	6.9243
C	-1.3865	-2.2747	1.4826
C	4.3083	5.6172	-0.8812
H	-7.0685	3.2893	-8.5267
C	3.3064	4.6882	-0.6766
H	-5.8225	3.8414	-9.3014
C	-3.5669	-0.5253	-2.2907
C	1.7668	-1.1590	2.7118
H	-6.3358	2.3862	-9.5780
C	-3.7367	-1.5150	-1.3970
C	0.5303	-1.7364	2.4424
C	2.3099	-0.0868	2.0039
C	-6.6209	-6.2271	1.5035
C	3.6756	-1.5237	5.9721
C	1.3865	2.2747	-1.4826
C	2.8953	-1.0006	4.9566
C	3.5669	0.5253	2.2907
C	-5.8110	-3.8418	1.4923
C	-1.2687	-3.0495	2.6881
C	6.2161	-3.0604	8.9053
C	3.7367	1.5150	1.3970
C	-4.8088	-2.9236	1.2800
C	-5.5723	-5.1853	1.2814
C	6.6209	6.2271	-1.5035
C	-4.1600	2.8346	-5.8684
C	-0.0973	-2.7326	3.2638
O	5.3931	-4.5775	6.9236
C	5.8110	3.8418	-1.4923
C	-2.5680	1.7320	-3.8401
O	5.3471	-2.5568	7.8661
C	-8.8093	-6.6699	2.2552
C	1.2687	3.0495	-2.6881
C	4.8088	2.9236	-1.2800
N	-1.7363	-0.5131	-0.9181
C	5.5723	5.1853	-1.2814
C	-3.8391	3.5878	-4.7575
N	-0.2746	-1.4455	1.3907
C	0.0973	2.7326	-3.2638
O	-7.7547	-5.7025	1.9872
C	-3.0678	3.0430	-3.7538
O	-6.4678	-7.4046	1.2926
C	-5.0175	3.4315	-6.9243
C	8.8093	6.6699	-2.2552
N	1.7363	0.5131	0.9181
N	0.2746	1.4455	-1.3907
O	7.7547	5.7025	-1.9872
O	6.4678	7.4046	-1.2926
C	-3.6756	1.5237	-5.9721
C	-2.8953	1.0006	-4.9566
C	-6.2161	3.0604	-8.9053
H	4.1446	-4.4625	4.6854
O	-5.3931	4.5775	-6.9236
O	-5.3471	2.5568	-7.8661
H	-4.1408	-6.5223	0.7533
H	-2.4636	-4.9752	0.4091
H	0.2431	-3.0916	4.0509
H	-4.1571	-0.2863	-2.9681
H	3.8774	-1.0079	6.7195
H	-4.4575	-2.1015	-1.3580
H	2.5827	-0.1279	5.0318
H	-2.8702	3.5553	-3.0031
H	-6.6491	-3.5587	1.7787
H	4.1408	6.5223	-0.7533
H	-1.8913	-3.6614	3.0106
H	2.4636	4.9752	-0.4091
H	7.0685	-3.2893	8.5267
H	-4.9800	-2.0186	1.4150
H	4.1571	0.2863	2.9681
H	5.8225	-3.8414	9.3014
H	4.4575	2.1015	1.3580
H	6.3358	-2.3862	9.5780
H	2.8702	-3.5553	3.0031
H	-8.5095	-7.2949	2.9199
*