! UKS B3LYP ma-def2-SVP OPT NumFreq
%basis
NewGTO Ru "ma-def2-TZVP" end
end 

%scf
  maxiter 200
end

%pal 
	nprocs 16
end
* xyz 0 1
C	3.5882	0.8214	-6.1104
C	2.8876	0.9128	-4.9050
C	2.7950	-2.7662	-3.9091
C	2.4027	2.2454	-4.4013
C	3.9518	1.6681	2.4452
C	4.1827	3.0320	2.2265
C	5.1167	3.6923	3.0208
C	5.8105	3.0139	4.0046
C	5.6211	1.6597	4.1826
C	4.6910	0.9585	3.3998
C	3.4494	3.8053	1.1578
C	4.5002	-0.5099	3.6134
H	-4.5438	-0.4252	2.3453
N	1.9682	0.2653	-0.4794
H	-5.0241	-1.0563	0.0240
N	0.4097	0.4565	1.9360
H	-2.1505	-1.4209	-4.4240
Cl	0.3469	-2.2440	0.4217
H	-0.1784	0.9540	5.0198
H	-4.0804	2.3514	6.2105
H	-4.4755	0.4270	7.4033
H	-3.7661	-1.5953	6.5943
H	-1.8472	2.8635	3.7924
H	-3.2209	2.7267	3.0495
H	-3.1360	3.5166	4.4010
H	-2.4492	-2.8914	5.1101
H	-2.9563	-2.5320	3.6707
H	-1.4948	-2.1630	4.1018
H	-5.2756	-4.5991	-2.8880
H	-6.4081	-3.4727	-4.5497
H	-6.1141	-1.2061	-4.8275
H	-3.4966	-4.7445	-1.3534
H	-3.8546	-3.6359	-0.3044
H	-2.5303	-3.5293	-1.1364
H	-3.6898	0.6581	-4.1064
H	-4.4432	0.9517	-2.7633
H	-5.2444	0.8603	-4.1078
C	-2.5333	-0.1359	1.7281
C	-3.9320	-0.4534	1.6451
C	-4.1981	-0.7986	0.3650
C	-2.9685	-0.6928	-0.3707
C	-2.8166	-1.0115	-1.7191
C	-1.6281	-0.8599	-2.4417
C	-1.4824	-1.1293	-3.8467
C	-0.1961	-0.8780	-4.1717
C	-0.4886	0.4775	2.9824
C	-1.8573	0.1984	2.9047
C	-2.6438	0.2670	4.1890
C	-3.0781	1.5034	4.6649
C	-3.7758	1.5370	5.8808
C	-4.0189	0.3861	6.5941
C	-3.5882	-0.8214	6.1104
C	-2.8876	-0.9128	4.9050
C	-2.7950	2.7662	3.9091
C	-2.4027	-2.2454	4.4013
C	-3.9518	-1.6681	-2.4452
C	-4.1827	-3.0320	-2.2265
C	-5.1167	-3.6923	-3.0208
C	-5.8105	-3.0139	-4.0046
C	-5.6211	-1.6597	-4.1826
C	-4.6910	-0.9585	-3.3998
C	-3.4494	-3.8053	-1.1578
C	-4.5002	0.5099	-3.6134
N	-1.9682	-0.2653	0.4794
N	-0.4097	-0.4565	-1.9360
Cl	-0.3469	2.2440	-0.4217
H	4.5438	0.4252	-2.3453
H	5.0241	1.0563	-0.0240
H	2.1505	1.4209	4.4240
H	0.1784	-0.9540	-5.0198
H	4.0804	-2.3514	-6.2105
H	4.4755	-0.4270	-7.4033
H	3.7661	1.5953	-6.5943
H	1.8472	-2.8635	-3.7924
H	3.2209	-2.7267	-3.0495
H	3.1360	-3.5166	-4.4010
H	2.4492	2.8914	-5.1101
H	2.9563	2.5320	-3.6707
H	1.4948	2.1630	-4.1018
H	5.2756	4.5991	2.8880
H	6.4081	3.4727	4.5497
H	6.1141	1.2061	4.8275
H	3.4966	4.7445	1.3534
H	3.8546	3.6359	0.3044
H	2.5303	3.5293	1.1364
H	3.6898	-0.6581	4.1064
H	4.4432	-0.9517	2.7633
H	5.2444	-0.8603	4.1078
Ru	-0.0000	-0.0000	-0.0000
C	2.5333	0.1359	-1.7281
C	3.9320	0.4534	-1.6451
C	4.1981	0.7986	-0.3650
C	2.9685	0.6928	0.3707
C	2.8166	1.0115	1.7191
C	1.6281	0.8599	2.4417
C	1.4824	1.1293	3.8467
C	0.1961	0.8780	4.1717
C	0.4886	-0.4775	-2.9824
C	1.8573	-0.1984	-2.9047
C	2.6438	-0.2670	-4.1890
C	3.0781	-1.5034	-4.6649
C	3.7758	-1.5370	-5.8808
C	4.0189	-0.3861	-6.5941
*