! UKS B3LYP ma-def2-SVP OPT NumFreq
%basis

end 

%scf
  maxiter 200
end

%pal 
	nprocs 16
end
* xyz 0 1
F	-2.6287	-0.0086	4.8370
C	-2.2383	-4.3421	-0.5138
C	-1.9042	-5.3976	0.3277
C	-2.5938	-6.6009	0.2378
C	-3.2619	-4.4885	-1.4414
F	-4.7236	0.5198	6.4674
F	-6.6865	2.1679	5.6643
C	-3.6175	-6.7487	-0.6902
C	-3.9515	-5.6918	-1.5296
Fe	-0.0459	0.0709	-0.1011
H	-1.9333	3.6292	3.0545
H	0.0169	4.7139	2.0237
H	3.4824	3.3615	-1.7544
H	4.0111	1.2993	-2.9804
H	1.8308	-3.5125	-3.2116
H	-2.8809	1.3578	-0.5605
H	-1.6325	0.8531	-5.0087
H	-0.2762	0.1713	-3.2335
F	-0.9109	-5.2958	1.1893
F	-2.2622	-7.6257	1.0003
H	-3.8710	-3.1012	1.1514
H	-4.2353	-1.1282	2.5740
H	2.1228	1.3230	1.4634
H	0.2533	-2.3260	1.5105
H	-4.4707	1.7859	-2.2212
H	3.7326	-0.2512	0.8413
H	0.9632	1.0580	3.5083
H	2.5407	1.1431	3.7964
H	2.4758	-2.6397	0.7983
H	2.2800	-3.3563	2.2210
H	4.1273	0.3037	2.2947
H	-0.1842	-1.0474	3.4651
H	-3.8370	1.5656	-4.4852
H	4.2660	-2.0680	2.2207
H	3.8387	-0.8131	4.1856
C	-1.4622	1.9295	1.8451
C	-1.3610	3.2499	2.3982
C	-0.3175	3.8481	1.8246
C	0.2037	2.9348	0.8480
C	1.3007	3.1746	0.0348
C	1.8687	2.2836	-0.8641
C	3.0123	2.5388	-1.6936
C	3.3017	1.4234	-2.3624
C	2.3295	0.4473	-1.9599
C	2.2903	-0.8577	-2.4272
C	1.3581	-1.8031	-2.0282
C	1.2422	-3.1249	-2.5754
F	-4.2858	-7.8837	-0.7679
F	-4.9172	-5.8410	-2.4181
C	-1.5419	-2.9910	-0.3943
C	-0.4007	-2.7610	-1.1480
C	-2.1177	-2.0708	0.4681
C	0.1751	-3.7203	-2.0436
C	-2.5193	-0.2749	1.6329
C	-2.4352	0.9981	2.1740
C	2.0092	4.5187	0.1618
C	3.0348	4.6233	1.0924
C	3.7252	5.8224	1.2356
C	3.3889	6.9156	0.4459
C	2.3623	6.8110	-0.4849
C	1.6719	5.6119	-0.6281
C	3.4149	-1.3109	-3.3513
C	4.4088	-2.1531	-2.8680
C	5.4583	-2.5351	-3.6948
C	5.5139	-2.0750	-5.0049
C	4.5200	-1.2328	-5.4882
C	3.4705	-0.8494	-4.6611
C	-2.6437	1.1933	-1.4668
C	-1.9376	0.9102	-4.1108
C	-3.3285	-2.3232	1.1941
C	-3.5346	-1.2412	1.9430
C	-1.1214	0.5505	-3.0239
C	-3.5277	1.3899	3.1629
C	-5.6200	2.4970	3.6021
C	-4.5460	2.2432	2.7564
C	-3.5968	1.4959	-2.4562
C	-3.2203	1.3564	-3.7928
C	1.0541	-0.4353	1.2704
C	2.1054	0.4278	1.9090
C	0.9794	-1.7822	1.9311
C	3.4561	-0.2219	1.7919
C	1.8270	0.5979	3.3759
C	2.2996	-2.4807	1.7610
C	0.6649	-1.5493	3.3816
C	3.3820	-1.6176	2.3439
C	1.7866	-0.7685	4.0032
C	3.1320	-1.4015	3.8106
N	-0.4893	1.7454	0.8896
N	1.4380	0.9925	-1.0650
N	0.3174	-1.5870	-1.1539
N	-1.6296	-0.8131	0.7306
N	-1.4141	0.6858	-1.7103
F	3.3747	3.5999	1.8480
F	4.6830	5.9423	2.1318
F	3.9950	8.0714	0.6239
F	2.0176	7.8623	-1.2002
F	0.7217	5.5185	-1.5344
F	4.3549	-2.6606	-1.6678
F	6.3777	-3.3954	-3.2914
F	6.5006	-2.4277	-5.8011
F	4.5451	-0.7978	-6.7291
F	2.5124	-0.0741	-5.1202
F	-3.5930	-3.4944	-2.2422
F	-6.5706	3.3350	3.2195
F	-4.5553	2.7717	1.5656
H	0.5597	-2.4180	3.8476
H	1.6112	-0.6709	4.9835
H	3.1711	-2.2674	4.2883
C	-3.5825	0.7889	4.4150
C	-4.6565	1.0413	5.2604
C	-5.6747	1.8960	4.8542
H	-0.1393	-4.5987	-2.2212
*