! UKS B3LYP ma-def2-SVP OPT NumFreq
%basis

end 

%scf
  maxiter 200
end

%pal 
	nprocs 16
end
* xyz 0 1
C	0.7624	-1.1630	4.6715
C	-0.2060	-1.4628	5.6189
C	0.1245	-1.5814	6.9539
C	1.4171	-1.4054	7.3897
C	2.3834	-1.1554	6.4444
C	2.0626	-1.0380	5.1037
C	1.7402	-1.4526	8.8628
H	5.3460	-7.8915	-1.5239
H	4.5782	-8.1160	-2.9097
Fe	-0.2235	-0.2379	-0.0401
H	2.3541	-4.4437	1.2758
H	1.7604	-3.4042	3.4299
H	-2.4704	2.4276	3.6463
H	-4.3626	2.4366	-1.3414
H	-3.3560	1.7950	-3.5011
H	0.9481	-0.9653	-4.9259
H	2.1489	-2.7779	-3.7507
H	2.7507	-0.8684	4.4708
H	-4.8301	1.3370	2.5336
H	-3.3593	4.3703	0.3312
H	-0.7881	2.8396	-4.4173
H	4.2178	-3.0559	-1.6154
H	-6.4829	2.7363	3.3609
H	-1.1807	3.5323	-6.5838
H	-2.0341	-0.2408	-7.6599
H	2.4385	-7.3201	-1.9147
H	-1.5835	-0.9653	-5.5005
H	5.5866	-4.8532	-2.1397
H	-2.2358	3.0999	-8.7570
H	-1.1287	2.0845	-9.3100
H	-2.6474	1.6049	-9.1499
H	5.8543	-7.1517	-2.8481
H	1.0545	-5.5241	-1.3804
H	-0.1424	2.6241	0.0651
H	1.1271	2.5884	2.0973
H	1.3937	3.9723	1.3326
H	3.4387	3.0399	2.0623
H	3.5091	4.3116	0.0554
H	4.5974	3.1343	-0.0069
H	3.3648	3.2121	-2.0500
H	2.7492	0.9148	-2.1544
H	4.1370	1.0615	-1.3613
H	2.6427	-0.3798	-0.1307
H	1.3189	4.0450	-1.2093
H	1.0425	2.6955	-2.0306
H	4.1547	0.9506	1.1849
H	2.7777	0.7490	1.9834
C	1.3776	-2.7728	0.3580
C	1.8810	-3.6287	1.3963
C	1.5575	-3.0623	2.5676
C	0.8483	-1.8467	2.2816
C	0.3937	-0.9538	3.2352
C	-0.4491	0.1112	2.9333
C	-1.0065	1.0143	3.8985
C	-1.9228	1.7554	3.2598
C	-1.9233	1.3473	1.8894
C	-2.7899	1.8281	0.9148
C	-2.6627	1.5131	-0.4268
C	-3.5439	1.9710	-1.4639
C	-2.9986	1.6189	-2.6390
C	-1.7761	0.9276	-2.3478
C	-0.9045	0.4314	-3.3146
C	0.0938	-0.4946	-3.0197
C	0.8954	-1.1707	-3.9993
C	1.5555	-2.1478	-3.3598
C	1.1995	-2.0610	-1.9759
C	1.6438	-2.9411	-0.9921
C	-3.8991	2.7172	1.3666
C	-4.8569	2.2452	2.2545
C	-5.8499	3.0769	2.7398
C	-5.0037	4.8639	1.4292
C	-3.9923	4.0297	0.9523
C	-1.1259	0.8587	-4.7251
C	-1.0277	2.1993	-5.0765
C	3.8460	-3.9297	-1.6563
C	-1.2735	2.6113	-6.3670
C	4.6640	-5.0012	-1.9728
C	-5.9370	4.4009	2.3355
C	-1.6507	1.7146	-7.3573
C	-1.7662	0.3931	-7.0031
C	2.8135	-6.4502	-1.8389
C	-1.5045	-0.0418	-5.7115
C	4.1548	-6.2805	-2.0486
C	-1.9412	2.1649	-8.7664
C	5.0643	-7.4655	-2.3609
C	2.5030	-4.1044	-1.3981
C	1.9824	-5.3774	-1.5170
C	1.0825	0.9557	-0.0280
C	0.8386	2.4340	0.0367
H	-5.0504	5.7632	1.1263
C	1.5274	2.9927	1.2868
C	2.9990	2.6827	1.2381
C	3.6272	3.3295	0.0146
C	2.9602	2.7784	-1.2446
C	3.1695	1.2682	-1.3307
C	2.5292	0.6125	-0.0906
C	1.4700	3.0667	-1.2186
C	3.1896	1.1674	1.1846
N	0.7134	-1.6947	0.9093
H	-7.0177	5.2938	3.8386
N	-0.9780	0.3613	1.6842
N	-1.6083	0.8059	-0.9835
H	-6.8696	6.2211	2.5425
N	0.3255	-1.0283	-1.7672
H	-7.8950	4.9928	2.5344
H	-0.7715	1.0743	4.8173
H	-1.1072	-1.5878	5.3439
H	-0.5544	-1.7906	7.5843
H	3.2885	-1.0623	6.7184
H	1.3851	-2.2804	9.2490
H	2.7133	-1.4258	8.9852
H	1.3345	-0.6821	9.3120
C	-7.0247	5.3066	2.8592
*