! UKS B3LYP ma-def2-SVP OPT NumFreq
%basis
NewGTO Os "ma-def2-TZVP" end
end 

%scf
  maxiter 200
end

%pal 
	nprocs 16
end
* xyz 0 1
H	-6.0301	0.6033	-1.7566
H	0.0395	5.1495	-0.3032
H	0.9250	4.4248	-2.4874
H	-2.0304	0.3293	4.7351
H	-1.7087	2.6595	4.0636
H	-2.8080	4.4049	1.9638
H	-3.1350	6.4488	3.0610
H	0.8055	6.7666	3.6727
H	1.1419	4.7151	2.5718
H	3.1939	3.3106	-3.2144
H	0.2605	1.5220	-5.3336
H	-2.5953	1.7820	0.1817
H	1.9144	1.7010	1.8486
H	-2.7321	2.1351	-2.2283
H	-4.1450	2.4413	-1.5362
H	-4.8387	1.0405	0.6016
H	3.8403	0.0990	-1.1242
H	3.4798	0.9878	3.5289
H	-2.3438	0.1339	-3.3891
H	3.4623	2.0093	-0.0231
H	4.1638	2.3791	1.3707
H	-4.4644	1.1323	-3.4495
Os	0.0000	0.0000	0.0000
H	-3.9538	-4.3572	5.1596
C	-0.5793	3.0346	1.4905
C	-0.0677	3.0469	0.1973
C	0.1877	4.2531	-0.5819
C	0.6727	3.8548	-1.7702
C	0.7438	2.4155	-1.7723
C	1.1697	1.6066	-2.8276
C	1.1777	0.2156	-2.8420
C	-1.6578	0.6272	3.9140
C	-1.4864	1.8951	3.5462
C	-0.9009	1.9084	2.2226
C	-0.7980	4.3660	2.1617
C	-2.0623	4.8814	2.3088
C	-2.2600	6.0937	2.9557
C	-1.1921	6.7559	3.4304
C	0.0695	6.2816	3.3181
H	-5.6021	-1.0391	-0.1160
C	0.2633	5.0631	2.6658
C	1.6602	2.2954	-4.0751
H	-5.6126	-0.7525	-2.5018
C	2.7525	3.1495	-4.0401
C	3.2075	3.7696	-5.1870
C	2.5599	3.5170	-6.3626
C	1.4842	2.7030	-6.4548
C	1.0215	2.0891	-5.2927
C	-1.9238	0.0472	-0.7365
C	-2.9814	1.0758	-0.4122
C	2.5806	0.9927	1.6127
C	-3.4927	1.7257	-1.7450
C	-4.1751	0.3644	0.3152
C	3.1005	0.3028	2.9227
C	3.7819	1.6374	0.8369
C	-4.1358	0.7063	-2.6066
C	4.8244	0.6180	0.5830
N	0.2602	1.9731	-0.5648
N	-0.7271	0.6005	1.8326
H	3.9538	4.3572	-5.1596
F	-1.3868	7.9580	4.0411
F	3.0178	4.1114	-7.5023
H	-0.0395	-5.1495	0.3032
H	-0.9250	-4.4248	2.4874
H	2.0304	-0.3293	-4.7351
H	1.7087	-2.6595	-4.0636
H	2.8080	-4.4049	-1.9638
H	3.1350	-6.4488	-3.0610
H	5.6021	1.0391	0.1160
H	-0.8055	-6.7666	-3.6727
H	-1.1419	-4.7151	-2.5718
C	-5.2833	-0.0267	-1.9141
H	-3.1939	-3.3106	3.2144
H	5.6126	0.7525	2.5018
H	-0.2605	-1.5220	5.3336
H	2.5953	-1.7820	-0.1817
H	-1.9144	-1.7010	-1.8486
H	2.7321	-2.1351	2.2283
H	4.1450	-2.4413	1.5362
H	4.8387	-1.0405	-0.6016
H	-3.8403	-0.0990	1.1242
H	-3.4798	-0.9878	-3.5289
H	2.3438	-0.1339	3.3891
H	-3.4623	-2.0093	0.0231
H	-4.1638	-2.3791	-1.3707
H	4.4644	-1.1323	3.4495
C	0.5793	-3.0346	-1.4905
C	0.0677	-3.0469	-0.1973
C	-0.1877	-4.2531	0.5819
C	-0.6727	-3.8548	1.7702
C	-0.7438	-2.4155	1.7723
C	-1.1697	-1.6066	2.8276
C	-1.1777	-0.2156	2.8420
C	1.6578	-0.6272	-3.9140
C	1.4864	-1.8951	-3.5462
C	0.9009	-1.9084	-2.2226
C	0.7980	-4.3660	-2.1617
C	2.0623	-4.8814	-2.3088
C	2.2600	-6.0937	-2.9557
C	1.1921	-6.7559	-3.4304
C	5.2833	0.0267	1.9141
C	-0.0695	-6.2816	-3.3181
C	-0.2633	-5.0631	-2.6658
C	-1.6602	-2.2954	4.0751
C	-2.7525	-3.1495	4.0401
C	-3.2075	-3.7696	5.1870
C	-2.5599	-3.5170	6.3626
C	-1.4842	-2.7030	6.4548
C	-1.0215	-2.0891	5.2927
C	1.9238	-0.0472	0.7365
C	2.9814	-1.0758	0.4122
C	-2.5806	-0.9927	-1.6127
C	3.4927	-1.7257	1.7450
C	4.1751	-0.3644	-0.3152
C	-3.1005	-0.3028	-2.9227
C	-3.7819	-1.6374	-0.8369
C	4.1358	-0.7063	2.6066
C	-4.8244	-0.6180	-0.5830
N	-0.2602	-1.9731	0.5648
N	0.7271	-0.6005	-1.8326
F	1.3868	-7.9580	-4.0411
F	-3.0178	-4.1114	7.5023
H	-1.0555	-2.5547	7.2894
H	6.0301	-0.6033	1.7566
H	1.0555	2.5547	-7.2894
*