! UKS B3LYP ma-def2-SVP OPT NumFreq
%basis

end 

%scf
  maxiter 200
end

%pal 
	nprocs 16
end
* xyz 0 1
C	-2.1385	5.0946	-1.3468
C	-2.3691	6.3991	-1.7832
C	-1.4958	7.3897	-1.4303
C	-0.4164	7.1052	-0.6673
C	-0.1906	5.8041	-0.2340
C	-1.7019	8.7480	-1.8883
C	2.7662	-1.1235	-8.3933
C	1.1890	0.5487	-7.4864
C	0.5585	-1.8542	-7.4233
C	5.5563	-3.3237	-3.2816
N	-0.8954	-0.9224	2.1537
N	-0.1106	-1.4749	-0.3847
N	0.0174	1.1699	-0.9323
H	-4.1457	-6.4671	0.8694
N	-0.6809	1.7355	1.6222
N	-1.8355	9.8171	-2.2650
H	-1.6092	2.9885	11.4066
C	-1.1504	-6.8055	1.9202
Ni	-0.4229	0.1273	0.6148
C	-2.4246	-7.1651	1.6421
H	-1.2627	-1.6163	5.2725
H	5.7788	-0.5834	-2.5921
C	-3.2631	-6.2219	1.1199
H	-1.6680	-3.5569	3.8110
H	7.1395	-1.3885	-2.8400
H	-0.4394	-4.5524	-1.2231
H	6.6712	-0.2684	-3.8826
C	-2.8490	-8.5316	1.8357
H	0.9573	-3.2993	-2.8162
H	1.4306	1.8654	-3.7409
H	6.4187	-3.7814	-3.3695
H	0.2041	3.7921	-2.7863
H	-1.3382	4.8471	2.1259
H	6.3415	-1.4539	-5.9103
H	-1.1477	3.5680	4.2209
H	7.2898	-2.5009	-5.1584
H	0.8991	1.9685	5.5347
H	5.9515	-3.0056	-5.8761
H	0.6710	2.6840	7.7319
H	-3.0677	1.1616	7.8182
H	-2.8390	0.4846	5.6172
H	0.1847	-5.2982	1.8700
H	-3.4511	-4.2801	0.6092
H	3.6294	-1.3575	-2.3753
H	4.2071	-1.5801	-6.3494
H	0.6148	-0.4336	-4.9131
H	-2.7551	4.4094	-1.5764
H	-3.1270	6.5974	-2.3208
H	0.1899	7.7958	-0.4273
H	0.5590	5.6146	0.3186
H	3.2845	-1.9230	-8.1653
H	2.3029	-1.2642	-9.2439
H	3.3694	-0.3546	-8.4717
H	1.8243	1.2015	-7.1213
H	1.0611	0.7190	-8.4426
N	-3.1699	-9.6203	2.0124
H	0.3318	0.6327	-7.0207
H	0.1445	-1.9883	-6.5448
H	-0.1057	-1.4963	-8.0470
H	0.8955	-2.7111	-7.7590
H	4.8429	-3.9048	-3.6196
H	5.3904	-3.1174	-2.3385
C	-0.9387	-0.5089	3.4828
C	-1.2210	-1.6237	4.3235
C	-1.4177	-2.6862	3.5273
C	-1.1843	-2.2792	2.1853
C	-1.1420	-3.1292	1.0945
C	-0.5670	-2.7467	-0.1112
C	-0.2000	-3.6359	-1.1582
C	0.5415	-2.9494	-2.0366
C	0.5942	-1.5943	-1.5828
C	-1.3951	2.4253	9.3801
C	1.1090	-0.5514	-2.3132
C	-1.5127	2.7359	10.4960
C	0.7420	0.7612	-2.0383
C	0.9368	1.8728	-2.9293
C	0.2865	2.9287	-2.3982
C	-0.2508	2.5136	-1.1525
C	-0.7674	3.3783	-0.2042
C	-0.8992	3.0154	1.1292
C	-1.1448	3.9210	2.2037
C	-1.0535	3.2213	3.3412
C	-0.7910	1.8695	2.9951
C	-0.8324	0.8135	3.9021
C	-0.9415	1.1634	5.3457
C	6.3656	-0.9731	-3.2729
C	0.0833	1.8090	5.9953
C	-0.0475	2.2324	7.3052
C	6.3609	-2.2726	-5.3716
C	-1.2285	1.9970	7.9975
C	-2.2571	1.3366	7.3540
H	-0.5440	-7.4509	2.2661
C	-2.1188	0.9312	6.0472
C	-1.5758	-4.5497	1.2765
C	-0.7251	-5.5190	1.7094
C	-2.8452	-4.9256	0.9538
C	1.9898	-0.8423	-3.4812
C	3.3073	-1.2641	-3.2642
C	4.1504	-1.5485	-4.3343
C	3.6366	-1.3965	-5.6118
C	2.3295	-0.9895	-5.8745
C	1.5118	-0.7132	-4.7720
C	5.5827	-2.0487	-4.0773
C	1.7376	-0.8521	-7.2904
C	-1.0507	4.7857	-0.5989
*