! UKS B3LYP ma-def2-SVP OPT NumFreq
%basis
NewGTO Mo "ma-def2-TZVP" end
end 

%scf
  maxiter 200
end

%pal 
	nprocs 16
end
* xyz 0 1
C	-0.6963	6.6612	-2.2022
C	-0.7111	1.4451	5.6348
C	0.4852	7.3729	-2.2814
C	-0.4654	1.6384	7.0073
H	0.3003	-7.3363	2.4614
C	0.8214	1.6789	7.5082
C	1.8829	1.5639	6.6283
C	1.6500	6.7461	-1.8675
C	1.6899	1.3837	5.2616
C	0.4787	8.7912	-2.7830
C	1.0642	1.8487	8.9917
H	-1.1963	-9.0628	2.9780
H	-2.7160	-8.6462	3.2610
H	-2.2852	-9.1660	1.8102
C	-1.6879	-7.2357	2.1777
Mo	0.5897	-0.1230	0.0260
H	-0.4039	-1.3014	4.9648
H	-0.9519	-3.3935	3.7465
C	-1.9986	-8.6514	2.5937
H	-1.3388	-4.7609	-1.3583
H	-0.9438	-3.6077	-3.5277
H	0.1607	1.3589	-4.9396
H	0.3431	3.5099	-3.7146
H	0.5493	4.9347	1.3741
H	0.4720	3.7227	3.5374
H	-2.3435	0.5440	4.7777
H	-2.2113	2.0916	4.3920
H	2.8048	0.5139	3.7637
H	2.8895	2.1125	3.7545
H	-3.6091	-6.6755	1.7675
H	1.4745	-4.4383	2.6097
H	1.9378	-5.7678	1.8509
H	1.5321	-4.4671	1.0113
H	-3.5735	-4.0779	-0.0463
H	-4.4285	-4.5441	1.2232
H	-3.4544	-3.2799	1.3363
H	1.8814	-2.1738	-7.1719
H	-2.0685	-1.4346	-7.4111
H	2.1756	-1.9570	-3.6908
H	2.9747	-2.2835	-5.0394
H	2.7341	-0.7633	-4.6001
H	0.4376	-2.9495	-9.1687
H	-0.9385	-2.1568	-9.3602
H	0.4551	-1.3745	-9.4494
H	-2.5511	0.0725	-4.4971
H	-3.3458	-0.8195	-5.5603
H	-2.8555	-1.4659	-4.1812
H	-2.1461	4.1707	-0.8064
H	-2.7947	5.2560	-1.7885
H	-2.0990	3.9474	-2.3908
H	3.1117	4.9399	-0.0443
C	0.1681	0.9279	3.3331
H	2.9231	3.8298	-1.1814
C	-0.1226	-0.4081	3.0379
H	3.6994	5.1893	-1.5109
C	-0.4152	-1.4176	4.0222
C	-0.7089	-2.5616	3.3581
C	-0.5837	-2.2743	1.9464
C	-0.8003	-3.2107	0.9398
C	-0.7160	-2.9365	-0.4428
C	-1.0375	-3.8676	-1.4757
C	-0.8312	-3.2342	-2.6619
C	-0.4118	-1.8995	-2.3644
C	-0.1531	-0.9096	-3.3168
C	0.0709	0.4264	-3.0131
C	0.1703	1.4712	-3.9964
C	0.2826	2.6440	-3.3274
C	0.2914	2.3384	-1.9277
C	0.4017	3.2944	-0.9185
C	0.3993	3.0071	0.4446
C	0.4772	3.9944	1.4910
C	0.4290	3.3322	2.6725
C	0.2985	1.9296	2.3791
C	0.3738	1.2766	4.7779
C	-2.1252	1.4373	5.1153
C	-1.1186	-4.6159	1.3526
C	-0.0745	-5.4622	1.7727
C	2.8767	1.3145	4.3253
C	-0.3988	-6.7591	2.1751
C	-2.7114	-6.3673	1.7658
C	-2.4462	-5.0730	1.3560
C	1.3376	-4.9934	1.8140
C	-3.5749	-4.1641	0.9297
C	-0.1561	-1.2883	-4.7712
C	1.0516	-1.6448	-5.3829
C	1.0660	-1.9217	-6.7572
C	-0.0803	-1.8368	-7.5176
C	-1.2728	-1.4868	-6.8943
C	-1.3274	-1.2139	-5.5352
C	2.3478	-1.6644	-4.6110
C	-0.0268	-2.1032	-9.0057
C	-2.6359	-0.8221	-4.8864
C	0.4492	4.7244	-1.3492
C	-0.7418	5.3474	-1.7388
C	1.6651	5.4336	-1.4117
C	-2.0613	4.6160	-1.6753
N	0.2883	1.7533	1.0094
N	-0.2359	-0.9579	1.7774
C	2.9633	4.7923	-1.0017
N	-0.3531	-1.7336	-0.9878
N	0.1686	0.9789	-1.7539
O	2.2071	-0.4760	0.0757
H	-1.2000	1.7416	7.6017
H	2.7694	1.6084	6.9674
H	-2.7411	1.6710	5.8419
H	-1.5046	7.0804	-2.4729
H	0.3092	1.4725	9.4920
H	1.8882	1.3798	9.2428
H	1.1541	2.8007	9.2016
H	2.4667	7.2306	-1.8961
H	0.3461	8.7938	-3.7546
H	3.7043	1.2740	4.8479
H	-0.2494	9.2862	-2.3533
H	1.3346	9.2183	-2.5687
*