! UKS B3LYP ma-def2-SVP OPT NumFreq
%basis
NewGTO Br "ma-def2-TZVP" end
end 

%scf
  maxiter 200
end

%pal 
	nprocs 16
end
* xyz 0 1
Ni	-0.0168	0.0004	-0.0165
Br	-2.2827	-3.5474	3.9129
C	-0.0966	2.7194	-1.1031
Br	-4.3762	-3.6493	1.1717
C	0.2988	4.0402	-0.6300
C	1.2966	3.8718	0.2443
C	1.5488	2.4424	0.3845
F	-1.8999	-4.6975	-1.7283
F	-3.7177	-6.4216	-2.6628
F	4.2446	3.1737	-0.8859
N	1.3982	-0.2589	1.2293
F	-6.2157	-5.5640	-3.2047
F	6.5594	4.3681	-0.2371
F	-6.9015	-2.9912	-2.7948
F	-5.0764	-1.2671	-1.8168
F	0.9773	3.6679	-3.9090
Br	5.4836	-0.1591	1.7045
F	0.2807	5.5892	-5.6620
Br	3.9561	-3.0178	2.8713
F	-2.3135	6.2628	-5.9708
F	-4.2038	5.1194	-4.4121
F	-3.4836	3.3200	-2.5653
C	-2.0450	-2.1159	0.1101
C	-2.4242	-1.9873	-1.2065
F	0.8086	-5.0321	2.4805
C	-1.9035	-0.9946	-2.0309
F	1.3238	-6.4238	4.7433
C	-2.1738	-0.7375	-3.4130
F	1.6431	-5.1451	7.0601
C	-1.7892	0.5234	-3.6744
F	1.3782	-2.4815	7.1771
C	-1.2214	1.0685	-2.4699
F	0.8812	-1.0899	4.9278
C	-0.8477	2.3848	-2.2080
C	2.6227	1.8109	0.9804
C	2.5992	0.4458	1.2091
C	3.0473	-1.5264	2.1989
F	7.4066	4.3903	2.3099
C	1.6304	-1.4201	1.9447
F	5.8900	3.2912	4.2526
C	0.5873	-2.1868	2.4360
F	3.5770	2.0857	3.6305
C	-0.6627	-2.1602	1.8488
C	-1.8564	-2.8693	2.2105
C	-2.6800	-2.8848	1.1517
C	-3.4383	-2.9380	-1.7623
C	3.6387	-0.4162	1.7290
C	-3.1444	-4.2543	-1.9642
C	-4.0914	-5.1540	-2.4485
C	-5.3395	-4.6887	-2.7330
C	-5.6479	-3.4145	-2.5449
C	-4.7154	-2.5369	-2.0498
C	-1.2250	3.4485	-3.1925
C	-0.3143	4.0380	-4.0002
C	-0.6354	5.0019	-4.9127
C	-1.9525	5.3498	-5.0438
C	0.8612	-3.0244	3.6445
C	-2.8958	4.7781	-4.2658
C	0.9429	-4.4006	3.6393
C	-2.5330	3.8562	-3.3462
C	1.2331	-5.1208	4.7735
Br	-0.4486	5.6822	-1.0782
C	1.3873	-4.4648	5.9457
C	1.2531	-3.1086	6.0031
C	0.9991	-2.4195	4.8446
C	3.8418	2.5732	1.3474
C	4.6165	3.1826	0.3969
C	5.8102	3.7986	0.6800
C	6.2329	3.8407	1.9840
Br	-2.8160	-1.9319	-4.7007
C	5.4927	3.2734	2.9787
Br	-1.8854	1.2990	-5.3753
C	4.2881	2.6640	2.6792
N	0.5964	1.7666	-0.3706
N	-0.8586	-1.5885	0.5938
N	-1.1996	0.0846	-1.5091
Br	2.0277	5.2435	1.2869
*