! UKS B3LYP ma-def2-SVP OPT NumFreq
%basis
NewGTO Rh "ma-def2-TZVP" end
NewGTO Sn "ma-def2-TZVP" end
end 

%scf
  maxiter 200
end

%pal 
	nprocs 16
end
* xyz 0 1
Sn	-1.3627	-0.9634	0.3468
H	1.5006	3.9980	4.0173
H	1.0362	5.2352	5.9813
H	1.5484	1.1504	4.8682
H	-2.1093	2.1663	4.3813
H	-1.5063	5.2690	-2.3215
H	-3.0175	6.4703	-3.5841
H	0.3669	0.1828	-5.2390
H	-4.7870	5.4364	-4.6262
H	-4.9814	3.1024	-4.5196
C	1.2049	-1.3533	-2.9994
H	-3.4624	1.8741	-3.2919
C	3.4560	-2.7131	2.4101
C	4.8378	-2.6052	2.2759
C	5.6609	-3.5435	2.9730
C	5.1291	-4.5077	3.6669
C	3.7670	-4.5785	3.7956
C	2.9404	-3.6975	3.1489
H	-0.7333	-2.2782	-4.5763
H	-0.5300	-3.5986	-6.5628
C	-0.0200	2.1753	2.7633
C	-0.6877	2.5731	1.6188
C	-1.7111	3.5991	1.5332
Rh	0.6028	0.4244	-0.1152
C	-2.1103	3.6822	0.2372
C	-1.3242	2.7585	-0.5138
C	1.2940	-2.1782	-4.2467
C	-1.3722	2.6034	-1.8899
C	0.2550	-3.3255	-6.0835
C	-0.6133	1.6797	-2.6061
C	1.3714	-3.6537	-6.5959
C	-0.6053	1.5864	-4.0392
C	2.5664	-3.2941	-5.9524
C	2.4905	-2.5580	-4.7584
N	1.6894	-1.2219	-0.5870
C	1.5930	0.7189	4.0123
C	0.8888	1.1459	2.8462
C	-0.2783	2.9675	4.0321
C	0.6710	3.8789	4.4857
C	0.4002	4.5958	5.6507
C	0.1573	0.4941	-4.3556
C	0.5541	-0.1251	-3.1253
C	-1.4604	2.7989	4.7015
C	-2.3344	3.4372	-2.6784
C	-2.2210	4.8251	-2.7831
C	-3.1286	5.5196	-3.5073
C	-4.1487	4.9240	-4.1247
C	-4.2610	3.5519	-4.0694
C	-3.3702	2.8282	-3.3431
N	-0.4774	2.0629	0.3467
C	0.1258	-2.5355	-4.9177
N	1.2219	0.2941	1.8056
N	0.1548	0.6885	-2.0456
Cl	-0.9762	-3.1671	0.9284
Cl	-2.8109	-1.2219	-1.4446
Cl	-2.7319	-0.2397	2.0485
H	-0.9308	4.9026	7.1245
H	-2.5451	3.3979	6.3585
C	-0.7565	4.4037	6.3237
C	-1.7228	3.5035	5.8766
H	2.4403	-3.8166	-2.3256
H	3.2541	-3.9380	0.0142
H	2.8904	-0.8432	4.3153
H	5.2223	-1.8984	1.7528
H	6.6143	-3.4379	2.9294
H	5.7072	-5.1606	4.0679
H	3.4144	-5.2854	4.3398
H	1.9884	-3.7514	3.2565
H	1.4229	-4.1751	-7.4012
H	3.4148	-3.5582	-6.3153
H	3.2941	-2.3018	-4.3001
C	1.6784	-1.8579	-1.8064
C	2.3354	-3.1525	-1.6423
H	-2.0458	4.1149	2.2696
C	2.7689	-3.2098	-0.3779
H	-2.7957	4.2587	-0.1061
C	2.3609	-2.0276	0.3116
H	-1.0352	2.1831	-4.6575
C	2.5990	-1.7354	1.6496
C	2.0848	-0.6454	2.3236
C	2.3187	-0.3453	3.7246
*