! UKS B3LYP ma-def2-SVP OPT NumFreq
%basis

end 

%scf
  maxiter 200
end

%pal 
	nprocs 16
end
* xyz 0 1
H	-5.0799	-7.6207	3.0941
Zn	0.0000	0.0000	0.0000
H	-4.8650	-4.9276	3.5821
H	2.6013	4.3442	0.7700
H	-2.6013	-4.3442	-0.7700
H	2.1606	3.5094	3.0355
H	-1.9642	-7.2037	2.0904
H	-2.1606	-3.5094	-3.0355
H	-0.9178	-5.3196	1.2657
H	-0.4417	-0.6388	5.0814
H	0.4417	0.6388	-5.0814
H	-3.6723	-8.2965	3.2333
H	-1.5471	-2.6154	4.1510
H	1.5471	2.6154	-4.1510
H	-4.2642	-7.4663	4.4235
H	3.8676	3.0592	-2.7086
H	-3.8676	-3.0592	2.7086
H	4.8650	4.9276	-3.5821
H	-0.7794	2.6533	4.7999
H	0.7794	-2.6533	-4.7999
H	1.9642	7.2037	-2.0904
H	-0.3259	3.5085	6.8904
H	0.3259	-3.5085	-6.8904
H	0.9178	5.3196	-1.2657
H	3.2080	1.7094	6.8833
H	-3.2080	-1.7094	-6.8833
H	3.6723	8.2965	-3.2333
H	2.7869	0.8496	4.7792
H	-2.7869	-0.8496	-4.7792
H	4.2642	7.4663	-4.4235
H	1.0150	3.7350	8.8048
H	-1.0150	-3.7350	-8.8048
H	2.5522	3.7572	8.4971
H	-2.5522	-3.7572	-8.4971
H	1.8945	2.4749	9.1147
H	-1.8945	-2.4749	-9.1147
C	-1.1014	-1.8120	2.2330
C	1.1014	1.8120	-2.2330
C	1.6128	2.7541	-1.3353
C	-1.6128	-2.7541	1.3353
C	1.5451	2.6394	0.0709
C	-1.5451	-2.6394	-0.0709
C	2.1360	3.5704	0.9916
C	-2.1360	-3.5704	-0.9916
C	1.8916	3.1119	2.2373
C	-1.8916	-3.1119	-2.2373
C	1.1407	1.8980	2.1039
C	-1.1407	-1.8980	-2.1039
C	0.6577	1.1325	3.1823
C	-0.6577	-1.1325	-3.1823
C	-4.0757	-5.0163	3.0987
C	-0.0717	-0.0425	3.0791
C	0.0717	0.0425	-3.0791
C	-3.5388	-6.2653	2.9160
C	-0.5428	-0.8376	4.1786
C	0.5428	0.8376	-4.1786
C	-2.3500	-6.3680	2.2216
C	-1.1583	-1.9230	3.6669
C	1.1583	1.9230	-3.6669
C	-1.7247	-5.2327	1.7183
C	2.2823	3.9837	-1.8771
C	-2.2823	-3.9837	1.8771
C	-4.2004	-7.5301	3.4670
C	3.4720	3.8912	-2.5821
C	-3.4720	-3.8912	2.5821
H	5.0799	7.6207	-3.0941
C	0.9473	1.6558	4.5542
C	4.0757	5.0163	-3.0987
C	-0.9473	-1.6558	-4.5542
C	0.0314	2.4545	5.2111
C	-0.0314	-2.4545	-5.2111
C	3.5388	6.2653	-2.9160
C	0.3023	2.9649	6.4727
C	-0.3023	-2.9649	-6.4727
C	2.3500	6.3680	-2.2216
C	1.4911	2.6774	7.1169
C	1.7247	5.2327	-1.7183
C	-1.4911	-2.6774	-7.1169
C	2.3981	1.9008	6.4698
C	-2.3981	-1.9008	-6.4698
C	4.2004	7.5301	-3.4670
C	2.1478	1.3812	5.1987
C	-2.1478	-1.3812	-5.1987
C	1.7630	3.2099	8.5126
C	-1.7630	-3.2099	-8.5126
N	0.9375	1.6280	0.7664
N	-0.9375	-1.6280	-0.7664
N	-0.4437	-0.6499	1.8883
N	0.4437	0.6499	-1.8883
*