! UKS B3LYP ma-def2-SVP OPT NumFreq
%basis
NewGTO Zr "ma-def2-TZVP" end
end 

%scf
  maxiter 200
end

%pal 
	nprocs 16
end
* xyz 0 1
H	-3.3367	0.5920	-3.8755
C	5.0138	2.3012	1.8257
H	-2.0519	-4.4022	1.3657
H	-1.1820	0.2772	-5.0402
C	-2.2541	0.5316	-2.0397
C	-0.2946	0.2978	-3.0615
C	-1.0687	0.3249	3.2990
H	-7.4230	-0.4510	-2.1954
H	-8.0646	1.6509	-2.7322
C	-2.0222	0.5395	2.2697
C	1.6596	-2.5610	-0.6555
H	-6.5671	3.4413	-2.5313
C	-3.3855	0.8861	2.4921
C	2.5644	-3.6803	-0.9933
C	-3.9678	1.0308	1.2980
C	-2.9724	0.7526	0.2980
N	0.8856	0.3599	1.8196
C	-3.1990	0.7589	-1.0479
N	1.7555	0.4839	-0.9250
C	-4.6128	1.0292	-1.5272
C	-5.4880	-0.0122	-1.6663
O	0.7165	-2.1889	-1.4287
O	1.8043	-1.9393	0.4254
C	-5.0138	2.3012	-1.8257
C	1.5916	0.1452	-4.6891
C	-1.5916	0.1452	4.6891
C	-2.4773	0.5093	-3.4557
C	1.2918	1.0292	-5.7081
C	-1.2918	1.0292	5.7081
C	-1.3197	0.3440	-4.0937
C	1.7799	0.8289	-6.9931
C	-1.7799	0.8289	6.9931
C	2.5662	-0.2491	-7.2572
C	-2.5662	-0.2491	7.2572
C	2.8922	-1.1284	-6.2539
C	-2.8922	-1.1284	6.2539
C	2.4093	-0.9376	-4.9747
C	-2.4093	-0.9376	4.9747
C	-1.6596	-2.5610	0.6555
C	-2.5644	-3.6803	0.9933
N	-0.8856	0.3599	-1.8196
N	-1.7555	0.4839	0.9250
C	-6.7902	0.2660	-2.1092
O	-0.7165	-2.1889	1.4287
C	-7.1703	1.4951	-2.4190
O	-1.8043	-1.9393	-0.4254
C	-6.2951	2.5541	-2.2889
Zr	-0.0000	-0.6148	-0.0000
H	3.3367	0.5920	3.8755
H	1.1820	0.2772	5.0402
H	3.8091	0.9863	-3.3486
H	4.8795	1.2836	-1.1321
H	5.2160	-0.9090	1.4570
H	7.4230	-0.4510	2.1954
H	8.0646	1.6509	2.7322
H	6.5671	3.4413	2.5313
H	4.3984	3.0279	1.7004
H	2.6376	-1.5450	-4.2669
H	3.2182	-3.3894	-1.6329
H	3.0090	-3.9808	-0.1975
H	2.0519	-4.4022	-1.3657
C	2.2541	0.5316	2.0397
H	-3.8091	0.9863	3.3486
C	2.4773	0.5093	3.4557
H	-4.8795	1.2836	1.1321
C	1.3197	0.3440	4.0937
H	-5.2160	-0.9090	-1.4570
C	0.2946	0.2978	3.0615
C	1.0687	0.3249	-3.2990
C	2.0222	0.5395	-2.2697
C	3.3855	0.8861	-2.4921
C	3.9678	1.0308	-1.2980
H	-4.3984	3.0279	-1.7004
C	2.9724	0.7526	-0.2980
H	0.7374	1.7893	-5.5164
H	-0.7374	1.7893	5.5164
C	3.1990	0.7589	1.0479
H	1.5638	1.4474	-7.6934
H	-1.5638	1.4474	7.6934
C	4.6128	1.0292	1.5272
H	2.8922	-0.3922	-8.1507
H	-2.8922	-0.3922	8.1507
H	3.4570	-1.8820	-6.4437
C	5.4880	-0.0122	1.6663
H	-3.4570	-1.8820	6.4437
C	6.7902	0.2660	2.1092
H	-2.6376	-1.5450	4.2669
C	7.1703	1.4951	2.4190
H	-3.2182	-3.3894	1.6329
C	6.2951	2.5541	2.2889
H	-3.0090	-3.9808	0.1975
*