! UKS B3LYP ma-def2-SVP OPT NumFreq
%basis

end 

%scf
  maxiter 200
end

%pal 
	nprocs 16
end
* xyz 0 1
N	-1.2660	0.3192	1.5123
N	1.0715	1.6627	0.5093
C	1.4572	-4.4200	-3.5424
S	-0.6330	-3.5645	-4.6401
S	0.6330	3.5645	4.6401
N	1.2660	-0.3192	-1.5123
N	-1.0715	-1.6627	-0.5093
Zn	0.0000	0.0000	0.0000
H	-2.6401	1.9194	3.8639
H	1.5970	4.4409	1.9585
C	-3.7741	-2.4590	1.9232
H	3.0785	4.0910	0.0716
C	-5.7786	-3.6139	2.3332
C	-2.3387	-0.4552	1.8570
C	-5.1113	-3.7817	3.4250
C	-3.0515	0.1788	2.9117
C	3.7741	2.4590	-1.9232
C	-2.4001	1.3052	3.2092
C	-4.9847	-2.8527	1.3649
C	5.7786	3.6139	-2.3332
C	-1.2712	1.3995	2.3433
H	2.6401	-1.9194	-3.8639
C	5.1113	3.7817	-3.4250
C	-0.3132	2.4250	2.3563
H	-1.5970	-4.4409	-1.9585
S	-3.6785	-3.0150	3.4616
C	-0.4642	3.4680	3.3733
H	-3.0785	-4.0910	-0.0716
C	4.9847	2.8527	-1.3649
C	2.3387	0.4552	-1.8570
C	-1.2548	5.2645	4.6908
C	3.0515	-0.1788	-2.9117
C	-0.2255	4.7754	5.3438
S	3.6785	3.0150	-3.4616
C	0.7457	2.5511	1.4864
C	2.4001	-1.3052	-3.2092
C	2.0829	2.2319	-0.1844
C	1.2712	-1.3995	-2.3433
C	1.6082	3.6994	1.3962
C	0.3132	-2.4250	-2.3563
C	2.4185	3.5097	0.3724
C	0.4642	-3.4680	-3.3733
C	-2.0829	-2.2319	0.1844
C	-2.6954	-1.6781	1.2894
C	1.2548	-5.2645	-4.6908
C	0.2255	-4.7754	-5.3438
H	-3.8276	-0.1338	3.3178
C	-0.7457	-2.5511	-1.4864
C	-1.6082	-3.6994	-1.3962
C	-2.4185	-3.5097	-0.3724
C	-1.4572	4.4200	3.5424
H	3.8276	0.1338	-3.3178
C	2.6954	1.6781	-1.2894
*