! UKS B3LYP ma-def2-SVP OPT NumFreq
%basis
NewGTO Ru "ma-def2-TZVP" end
end 

%scf
  maxiter 200
end

%pal 
	nprocs 16
end
* xyz 0 1
C	4.6228	-3.4965	-5.0933
C	3.3774	-2.9757	-4.7962
C	3.2030	-2.1858	-3.6553
C	4.4783	0.4236	-1.9294
C	-4.3743	1.0933	2.2960
C	-3.9119	-0.2009	2.4026
C	-4.7360	-1.2205	2.8583
C	-6.0510	-0.9505	3.2098
C	-6.5297	0.3301	3.1085
N	-0.7941	0.1236	-1.7671
N	1.0187	0.1571	1.9247
N	-0.8762	-1.5801	0.5761
N	2.8049	-1.0621	-1.0621
C	-0.8089	1.6875	6.1924
C	-2.0658	2.3150	7.9998
C	-3.4407	2.8474	8.2884
O	0.8845	-2.3516	-7.0189
C	-1.0606	2.7177	9.0478
O	2.3379	-0.7603	-7.7613
C	-8.3073	1.3008	-1.4445
C	-8.3438	2.3663	-0.3667
C	-9.6313	1.1853	-2.1401
O	1.2151	-4.2308	3.3281
H	-2.8449	-0.8298	-4.0294
O	4.5734	-5.4620	0.9521
O	3.7068	-6.7240	2.6596
C	-1.4150	1.1996	0.7828
O	-1.1450	-4.0830	-2.8283
H	-1.8806	-3.9460	2.4621
C	-3.5295	2.2676	1.8191
H	-2.8689	-4.0380	0.2193
O	1.7041	-6.0956	-3.6154
O	-4.8950	-1.6811	-1.4974
O	1.9327	-6.1670	-1.3730
O	-7.9756	0.0473	-0.8507
C	-5.7007	1.3587	2.6609
C	-3.1636	3.2366	2.9450
O	-1.7467	-0.9653	4.8410
H	2.5228	-0.4693	-5.7948
H	0.5386	-1.3954	-5.3000
N	1.1303	1.8516	-0.4392
H	-0.1814	-0.7333	-6.5401
H	1.6214	-0.7785	4.9058
O	-2.1280	0.9001	7.9457
H	1.1679	-1.2567	-10.0537
H	0.0888	-0.8298	-9.0002
H	0.1277	-2.3050	-9.5281
N	-2.3227	1.7814	1.2013
H	3.0855	-2.7303	-9.3311
O	1.1118	1.5387	-5.2786
H	2.1156	-3.8163	-8.7486
C	6.0556	0.1144	2.5705
H	3.2039	-3.1617	-7.8293
C	5.1065	-0.8767	1.9795
O	-0.7430	4.7393	-2.3915
C	7.2247	-1.7303	1.7730
O	-4.4265	4.2692	-1.0330
C	8.3032	-1.5614	0.7418
O	-4.1683	5.9903	-2.5045
C	7.3278	-3.0787	2.5075
O	1.4770	4.1037	3.3543
O	-1.4088	5.9423	1.3397
O	0.0059	7.3245	2.4686
H	-1.6732	1.2456	-4.6248
H	2.1489	4.2155	-2.3214
H	3.2483	4.2155	-0.1316
H	2.8615	1.2426	4.2819
C	6.0467	-6.8420	2.2386
H	0.8588	3.4870	-7.0360
H	0.1129	5.6242	-6.6449
O	-7.2832	1.5252	-2.3920
H	-0.6589	6.2441	-4.5538
H	2.3451	1.6528	-6.8428
C	5.0659	4.8247	3.7222
H	0.8570	1.3210	-7.2459
C	5.5935	3.8281	2.9336
C	4.7346	2.9743	2.2470
O	-1.6649	2.7244	6.6923
H	4.7069	-1.4347	2.6644
H	4.4033	-0.4362	1.4763
C	6.3483	1.2842	1.6278
H	-1.6325	6.4809	-2.6913
H	-1.9324	5.8625	-1.2788
H	-3.0374	4.8987	-3.7193
H	-4.0276	3.2049	-2.6611
H	-2.8005	3.3271	-1.6743
H	-5.7120	7.1642	-0.8091
H	1.5362	-6.1180	3.9109
H	-4.4182	6.6438	-0.0922
H	2.7227	-5.1466	4.2720
H	-5.8101	6.0013	0.2358
H	2.0897	-6.0652	1.6675
H	-6.7614	5.7539	-2.6520
H	-6.9188	4.5126	-1.7087
H	3.1021	-4.1044	1.0716
C	5.5091	-2.4844	-3.1134
H	-6.0821	4.3934	-3.0294
C	5.6827	-3.2658	-4.2481
H	3.3575	5.6966	4.3705
H	4.0442	-4.1149	2.3396
H	3.4927	-7.7183	0.2806
H	4.3996	-8.6851	1.1178
H	0.6904	-5.3442	5.6886
H	1.2475	5.8882	4.1958
H	-0.7034	-4.4995	7.3059
H	-0.1129	5.1838	3.8492
H	-1.8398	-2.5146	7.0112
H	1.6306	6.3015	1.8982
H	0.2313	5.6182	0.2571
H	-0.0963	4.4462	1.2631
H	-2.2433	8.6318	2.8684
H	-2.3673	7.1567	3.3859
H	-3.1817	7.6167	2.1299
H	-0.9273	9.1084	0.7949
H	-1.8546	8.1506	-0.0311
H	-0.3036	7.9199	-0.0168
H	-2.9393	-5.8193	-3.7035
H	-2.9707	-0.8766	6.4006
H	-5.2289	-5.5720	-3.5905
H	-3.0207	0.4070	5.4964
H	-6.2043	-3.7152	-2.6253
H	-0.7293	-0.2114	7.0572
H	-0.7293	-5.5131	-4.1390
H	-0.7515	-6.0184	-2.6452
H	1.1957	-4.1738	-3.6078
H	2.1674	-4.1949	-1.5952
H	0.7292	-4.6006	-1.0755
H	4.3034	-6.5147	-3.5478
H	4.4681	-6.4920	-1.9888
H	3.9665	-5.2130	-2.7423
H	2.7579	-8.4875	-3.4079
H	1.4363	-8.3699	-2.5734
H	2.8134	-8.5267	-1.8405
O	5.9577	-1.6371	1.1233
H	-6.7725	-2.1466	-1.0320
O	7.2502	-0.6632	2.7400
H	-6.6300	-1.4678	-2.4469
H	-6.1488	-0.0576	-0.0157
H	-5.4436	0.7614	-2.4517
H	-10.3226	1.0375	-1.4913
H	-9.6063	0.4477	-2.7552
H	2.6542	-3.1496	-5.3557
H	2.3655	-1.8313	-3.4620
H	4.3885	0.9575	-1.1354
H	3.8758	0.7464	-2.6022
H	-3.0337	-0.3939	2.1657
H	-4.4071	-2.0878	2.9282
H	0.1036	1.8097	6.4963
H	-6.6041	-1.6338	3.5122
H	-0.8200	1.6604	5.2226
H	-7.4111	0.5141	3.3410
H	-3.7093	2.5805	9.1694
H	-4.0609	2.4975	7.6437
H	-3.4298	3.8067	8.2344
H	-1.3641	2.4251	9.9105
H	-0.9643	3.6725	9.0488
Ru	0.1231	0.1401	0.0719
H	-0.2129	2.3105	8.8508
C	-1.7227	-0.7935	-2.2074
C	-2.2083	-0.3871	-3.5137
O	5.1565	2.0176	1.3516
C	-1.5624	0.7568	-3.8415
C	-0.6660	1.0813	-2.7517
C	-2.3548	7.7147	2.6058
H	-5.6712	1.7539	-1.2441
H	-9.0566	2.1762	0.2475
H	-8.4902	3.2245	-0.7699
C	1.9146	1.0898	2.3818
H	-7.5073	2.3738	0.1039
C	2.2703	0.7703	3.7422
C	1.5873	-0.3410	4.0858
C	-1.0587	8.2019	0.5047
C	0.7905	-0.7244	2.9397
H	-9.8117	1.9967	-2.6215
C	-0.0659	-1.8279	2.8915
C	-0.8368	-2.2191	1.7907
C	-1.7190	-3.3541	1.7628
C	-2.2696	-3.3994	0.5298
C	-1.7580	-2.2798	-0.2138
C	-2.1406	-1.9250	-1.5116
H	6.7207	0.9470	0.7984
H	5.7267	0.4387	3.4339
H	-4.0424	2.7599	1.1454
H	9.1620	-1.6217	1.1634
H	8.2125	-0.7031	0.3209
C	1.5514	1.1568	-6.5890
H	8.2236	-2.2522	0.0793
C	1.8507	-0.3087	-6.4896
H	8.1792	-3.1391	2.9479
H	-6.0303	2.2275	2.6044
C	0.6271	-1.1775	-6.2420
H	-2.6320	3.9530	2.5895
C	1.6099	-1.9211	-8.1657
H	-2.6635	2.7705	3.6189
C	0.6608	-1.5433	-9.2907
H	-3.9665	3.5940	3.3331
C	2.5937	-3.0063	-8.5544
H	7.2445	-3.7952	1.8750
H	6.6244	-3.1436	3.1585
C	0.2012	2.1817	-2.7006
C	1.0554	2.5063	-1.6377
H	5.0197	-7.8495	-0.0542
C	1.9942	3.6162	-1.6268
H	5.6416	5.3935	4.1795
C	2.6003	3.6153	-0.4216
H	6.5152	3.7268	2.8604
C	2.0571	2.5111	0.3366
H	6.7133	-6.8389	1.5471
C	2.4056	2.1797	1.6479
H	6.1025	-7.6625	2.7339
H	6.1950	-6.0999	2.8297
H	7.0039	1.8716	2.0350
C	0.1625	3.1459	-3.8577
C	0.6165	2.8025	-5.1390
C	0.5754	3.7308	-6.1843
C	-0.2405	-2.6206	4.1516
C	0.1149	5.0043	-5.9505
C	-0.3461	5.3815	-4.7022
C	0.4194	-3.8264	4.3527
C	-0.3337	4.4390	-3.6639
C	2.0643	-5.3682	3.5953
C	2.7384	-5.7143	2.3128
C	3.6122	-4.6700	1.6718
C	-1.8282	5.6553	-2.2208
C	4.6769	-6.7228	1.6157
C	-3.1183	5.0616	-2.7560
C	4.3691	-7.8465	0.6524
C	-3.5593	3.7977	-2.0521
C	-5.0662	5.3919	-1.5461
C	0.2463	-4.5398	5.5489
C	-5.2696	6.3889	-0.4563
C	-0.5934	-4.0273	6.5115
C	-6.3246	4.9741	-2.3047
C	3.3448	3.1088	2.3660
C	-1.2783	-2.8401	6.3447
C	-1.1045	-2.1407	5.1493
C	2.8356	4.1159	3.1867
C	3.6987	5.0027	3.8521
C	-3.0507	-2.9009	-2.1963
C	-2.5076	-4.0388	-2.8009
C	-3.3152	-5.0606	-3.3184
C	-4.6828	-4.9053	-3.2407
C	0.7870	5.3527	3.5305
C	-5.2775	-3.7949	-2.6627
C	0.7278	6.1075	2.2262
C	-0.1022	5.4085	1.1424
C	-4.4441	-2.7905	-2.1349
C	-1.2046	7.3037	1.7087
C	-2.4303	-0.2573	5.8856
C	-0.4996	-5.2834	-3.2255
H	4.7717	-1.3336	-0.9177
C	0.9739	-4.9833	-3.1030
H	6.2302	-2.3291	-2.5467
C	1.4557	-4.8510	-1.6674
H	6.5171	-3.6323	-4.4365
C	2.5233	-6.6383	-2.5693
C	-1.4317	0.4190	6.7919
C	3.9434	-6.1723	-2.7257
H	4.7439	-4.0048	-5.8625
C	2.3692	-8.1436	-2.6001
C	-6.3078	-1.4570	-1.5324
C	-6.5449	-0.1078	-0.9097
C	-6.0805	1.0586	-1.7830
H	5.3806	0.4809	-2.2531
C	1.7534	-0.7733	-0.6585
C	4.1490	-1.0199	-1.6064
C	4.2699	-1.9288	-2.8122
*