! UKS B3LYP ma-def2-SVP OPT NumFreq
%basis
NewGTO Ru "ma-def2-TZVP" end
end 

%scf
  maxiter 200
end

%pal 
	nprocs 16
end
* xyz 0 1
F	-1.5374	-2.4504	5.0013
F	-0.4781	-3.9453	3.9493
H	-0.0939	1.4298	-5.0510
H	-4.1114	2.6792	-1.7974
H	-4.4059	2.7887	0.6285
H	-1.6197	0.9242	4.8010
H	0.6106	-0.0350	5.0774
H	4.6845	-1.1228	1.8447
H	5.0810	-0.9716	-0.5554
H	2.2087	0.6670	-4.7513
H	-2.6016	-0.0594	-4.3396
H	-4.0745	0.1196	-6.0916
H	-4.1801	4.0537	-5.5830
H	2.9992	-1.8891	-3.8226
H	-2.6716	3.8765	-3.8320
H	4.7238	-2.8449	-5.0056
H	7.2044	-0.0315	-3.6528
H	-5.1670	1.4698	-7.7506
H	5.4848	0.9207	-2.4530
H	-5.1400	3.0337	-7.6368
H	-6.1772	2.2031	-6.8022
H	7.9016	-2.6242	-4.5342
H	-4.8294	0.9103	2.3607
H	7.7961	-1.5399	-5.6623
H	6.9749	-2.8727	-5.7751
H	-6.5221	1.5862	3.7575
H	-4.0316	4.0763	5.5997
H	-2.3414	3.4455	4.1706
H	-6.3122	3.2249	6.6560
H	-7.3653	2.8217	5.5670
H	-6.7761	4.2744	5.5874
C	2.0750	3.2342	1.0503
H	-1.2796	-1.6180	-2.5425
N	2.2278	0.1594	0.2776
H	1.2121	-4.5738	-3.6037
H	2.6359	-2.6728	3.5977
H	3.9112	-3.4478	5.3447
H	-0.1676	-2.2853	2.1223
H	4.8072	0.2847	6.3565
H	-4.0475	-2.9283	2.9081
H	3.5258	1.0667	4.6131
H	-4.6158	-1.8665	0.9530
H	6.1967	-2.4765	6.8432
H	-2.9944	-0.9751	-0.3942
H	4.9005	-2.9161	7.6076
H	-0.2646	3.7983	-0.8957
H	5.4885	-1.4790	7.8246
H	2.3941	-4.2628	-1.6473
H	1.7706	-2.6207	-0.1487
H	0.3946	5.9652	-0.6024
Ru	0.2911	0.7771	0.0233
C	0.3148	1.2232	-4.2417
H	2.5217	2.5350	1.4689
C	-0.2940	1.2979	-2.9356
H	2.1511	6.4344	0.8179
C	-1.6025	1.7027	-2.6787
C	2.7795	-0.2599	1.4751
H	3.2153	4.6863	1.8572
C	-2.1794	1.8867	-1.4114
C	4.0929	-0.7836	1.2110
C	-3.4903	2.4167	-1.1561
C	4.3126	-0.6964	-0.1086
C	3.1477	-0.1019	-0.7085
C	-3.6572	2.4646	0.1823
C	2.9563	0.0960	-2.0809
C	-2.4727	1.9268	0.7975
C	1.7890	0.5919	-2.6627
C	-2.2837	1.7126	2.1673
C	1.5815	0.8001	-4.0780
C	-1.1409	1.1383	2.7383
C	-0.9863	0.7996	4.1314
C	0.2387	0.2717	4.2826
C	0.8733	0.2670	2.9902
C	-2.5083	1.8815	-3.8654
C	-2.9244	0.7798	-4.5778
C	2.1572	-0.2137	2.7302
C	4.0573	-0.4001	-2.9759
C	-3.8057	0.8842	-5.6357
C	3.8511	-1.5174	-3.7691
C	-4.2906	2.1127	-6.0194
C	-3.8646	3.2144	-5.3356
C	4.8895	-2.0919	-4.4860
C	-2.9637	3.1090	-4.2694
C	6.1673	-1.5642	-4.4405
C	6.3612	-0.4225	-3.6796
C	-5.2848	2.2135	-7.1564
C	5.3252	0.1554	-2.9550
C	-3.3945	2.1159	3.0947
C	-4.6600	1.5616	3.0023
C	7.3137	-2.2089	-5.1689
C	-5.6776	1.9637	3.8513
C	-5.4714	2.9088	4.8295
C	-4.2046	3.4450	4.9385
C	-3.1822	3.0607	4.0797
C	-6.5810	3.3465	5.7431
C	-0.3359	-0.9732	-0.1557
C	0.1540	-1.9612	-1.1640
C	-0.5395	-2.1489	-2.3537
C	2.9599	-0.7238	3.8991
C	-0.1418	-3.1187	-3.2636
C	3.0766	-2.0664	4.1466
C	0.9518	-3.9165	-2.9999
C	3.8412	-2.5321	5.2022
C	4.4979	-1.6629	6.0431
C	1.2734	-2.7498	-0.9237
C	4.3715	-0.3223	5.8025
C	-0.9188	-3.2775	-4.5284
C	3.6056	0.1495	4.7484
C	-1.4048	-1.5251	0.7215
C	5.3486	-2.1811	7.1841
C	-1.0636	-2.1851	1.8925
C	-2.0505	-2.6966	2.7205
C	-3.3835	-2.5772	2.3604
C	-3.7210	-1.9413	1.1955
C	-2.7514	-1.4139	0.3880
C	1.6552	-3.7279	-1.8302
C	-1.6516	-3.3245	4.0093
C	0.4547	3.9733	-0.3339
C	0.8389	5.2788	-0.1581
N	0.6342	0.9240	-1.9878
N	-1.5731	1.6055	-0.2019
N	0.0052	0.7846	2.0593
N	1.0532	2.9491	0.2545
F	-0.6414	-4.3968	-5.1735
F	-2.2100	-3.2584	-4.3463
C	2.5021	4.5264	1.2833
F	-0.6635	-2.3095	-5.3884
F	-2.5316	-4.2406	4.4336
C	1.8773	5.5568	0.6733
*