! UKS B3LYP ma-def2-SVP OPT NumFreq
%basis

end 

%scf
  maxiter 200
end

%pal 
	nprocs 16
end
* xyz 0 1
H	-0.9282	2.4653	-1.8655
C	-2.8822	0.9382	-0.1385
H	0.2196	1.8412	-4.3437
H	-0.7643	3.0212	-4.0416
H	0.8096	4.1490	-2.9201
H	2.8440	3.4366	-2.4547
C	-3.7483	1.9717	0.3416
H	2.6570	2.1443	-3.3130
H	2.3358	4.7200	-4.5239
H	0.8945	4.6206	-5.1321
H	1.9284	3.4677	-5.3750
H	0.8220	0.3953	-2.1545
C	-6.6914	0.2017	-2.6376
C	-5.3346	0.3371	-2.4010
H	-3.3038	3.5681	1.5287
C	-0.4672	1.8171	-2.4211
C	-0.0186	2.5135	-3.6858
C	1.1398	3.4316	-3.5001
C	2.1981	2.7654	-2.7265
C	1.7612	2.0188	-1.5093
C	1.6179	4.1229	-4.7452
N	0.5605	1.2041	-1.6363
Fe	-0.0000	-0.0000	-0.0000
H	1.7520	3.6965	3.0460
H	3.7083	2.2938	2.6456
H	5.2096	1.2472	-0.3695
H	7.4598	1.4609	0.0337
H	8.3898	0.5629	1.9205
H	-1.7520	-3.6965	-3.0460
H	-3.7083	-2.2938	-2.6456
H	-0.6692	3.4858	4.4045
H	-1.1313	5.5076	5.4397
H	-1.6163	7.3699	4.1825
H	-5.2096	-1.2472	0.3695
H	-1.6161	7.2315	1.8984
H	-7.4598	-1.4609	-0.0337
H	-1.1438	5.2488	0.8528
H	-8.3898	-0.5629	-1.9205
C	-1.6654	2.2827	1.0950
H	0.6692	-3.4858	-4.4045
H	1.1313	-5.5076	-5.4397
H	1.6163	-7.3699	-4.1825
H	1.6161	-7.2315	-1.8984
C	-3.0062	2.8025	1.0933
H	1.1438	-5.2488	-0.8528
H	2.4887	1.4419	-1.2309
H	1.6146	2.6620	-0.7975
H	3.3038	-3.5681	-1.5287
C	0.6649	2.2968	1.8714
C	2.4282	1.0445	1.5023
H	-2.4887	-1.4419	1.2309
H	-1.6146	-2.6620	0.7975
C	1.7751	2.9118	2.5471
C	2.8481	2.1432	2.3255
C	-0.6649	-2.2968	-1.8714
C	3.2845	0.0843	0.9861
C	-2.4282	-1.0445	-1.5023
C	-0.6123	2.8526	1.8041
C	4.7552	0.2037	1.2845
C	5.5754	0.8750	0.4011
C	-1.7751	-2.9118	-2.5471
C	6.9246	1.0044	0.6421
C	-2.8481	-2.1432	-2.3255
C	7.4793	0.4706	1.7581
N	-1.5993	1.1333	0.3404
C	-3.2845	-0.0843	-0.9861
C	0.6123	-2.8526	-1.8041
C	-0.8691	4.1430	2.5092
C	-0.8610	4.2363	3.8906
C	-4.7552	-0.2037	-1.2845
C	-1.1391	5.4504	4.5118
C	-5.5754	-0.8750	-0.4011
C	-1.4241	6.5612	3.7644
C	-6.9246	-1.0044	-0.6421
C	-1.4251	6.4769	2.4077
C	-7.4793	-0.4706	-1.7581
C	-1.1461	5.2859	1.7827
C	0.8691	-4.1430	-2.5092
C	0.8610	-4.2363	-3.8906
C	1.6654	-2.2827	-1.0950
C	1.1391	-5.4504	-4.5118
C	1.4241	-6.5612	-3.7644
C	1.4251	-6.4769	-2.4077
N	1.0736	1.1449	1.2365
C	1.1461	-5.2859	-1.7827
C	3.0062	-2.8025	-1.0933
N	-1.0736	-1.1449	-1.2365
N	1.5993	-1.1333	-0.3404
H	0.9282	-2.4653	1.8655
H	4.6574	-2.0529	-0.1654
H	-0.2196	-1.8412	4.3437
H	0.7643	-3.0212	4.0416
H	-0.8096	-4.1490	2.9201
H	-2.8440	-3.4366	2.4547
H	-2.6570	-2.1443	3.3130
H	7.0658	-0.5719	3.4032
H	4.8073	-0.8017	3.0108
H	-2.3358	-4.7200	4.5239
H	-0.8945	-4.6206	5.1321
H	-1.9284	-3.4677	5.3750
H	-0.8220	-0.3953	2.1545
H	1.1119	-1.1338	2.6642
C	2.8822	-0.9382	0.1385
C	3.7483	-1.9717	-0.3416
C	0.4672	-1.8171	2.4211
C	0.0186	-2.5135	3.6858
C	-1.1398	-3.4316	3.5001
C	-2.1981	-2.7654	2.7265
C	-1.7612	-2.0188	1.5093
C	-1.6179	-4.1229	4.7452
C	6.6914	-0.2017	2.6376
C	5.3346	-0.3371	2.4010
N	-0.5605	-1.2041	1.6363
H	-4.6574	2.0529	0.1654
H	-7.0658	0.5719	-3.4032
H	-4.8073	0.8017	-3.0108
H	-1.1119	1.1338	-2.6642
*