! UKS B3LYP ma-def2-SVP OPT NumFreq
%basis

end 

%scf
  maxiter 200
end

%pal 
	nprocs 16
end
* xyz 0 1
H	-3.3575	1.6897	-2.7602
H	-2.2390	3.7974	-2.0411
H	2.3803	-1.0580	-1.3348
H	2.4302	0.4694	-1.4304
H	-2.5642	-3.5037	-1.8886
C	0.7982	3.0990	0.8191
C	1.5776	4.0385	1.6034
C	2.3395	3.3103	2.4541
H	-4.7963	-1.4519	-1.3307
C	2.0460	1.9196	2.2008
H	-6.5062	-1.7241	-2.8815
C	2.6668	0.8459	2.8702
C	2.4187	-0.5074	2.6241
H	-3.9000	-0.9834	-5.9050
H	-2.2002	-0.6665	-4.3460
C	3.0504	-1.5998	3.3308
H	-6.8279	-1.5650	-7.3537
C	2.5917	-2.7481	2.7771
C	1.6612	-2.3778	1.7226
C	0.9439	-3.2887	0.9331
C	-0.1363	-2.9420	0.0957
C	-0.9594	-3.8803	-0.6370
C	-1.8740	-3.1607	-1.3335
C	-1.5903	-1.7651	-1.0623
C	-1.9053	0.6744	-1.5469
C	-2.6119	1.7618	-2.1771
C	3.7004	1.2088	3.8960
C	-2.0041	2.9151	-1.7777
C	3.3444	1.5729	5.1839
C	-0.9402	2.5447	-0.8785
C	-0.1299	3.4495	-0.1690
C	5.6676	1.9072	5.7569
C	6.0209	1.5319	4.4747
C	5.0451	1.1951	3.5413
C	1.4177	-4.7116	0.9668
C	0.6019	-5.7692	1.3791
C	1.1192	-7.0704	1.4389
C	2.4299	-7.3251	1.0801
C	3.2338	-6.2750	0.6379
C	2.7273	-4.9863	0.5887
H	1.5583	4.9867	1.5353
C	-2.2338	-0.6864	-1.7000
N	1.1139	1.8153	1.2008
N	1.5674	-1.0131	1.6719
N	-0.5569	-1.6663	-0.1743
C	-3.3265	-0.9859	-2.6796
C	-4.6188	-1.3351	-2.2568
O	1.8162	-0.2713	-1.3751
C	-5.6311	-1.5066	-3.1789
C	-5.3810	-1.3649	-4.5399
C	-4.0862	-1.0617	-4.9770
C	-3.0776	-0.8740	-4.0469
C	-6.4695	-1.5886	-5.5202
H	-0.9561	5.5335	1.3304
H	-1.0501	7.8115	0.8014
H	-0.4373	8.5522	-1.3156
H	0.2360	7.0224	-2.9435
H	0.3667	4.7469	-2.4161
N	-0.8916	1.1735	-0.7688
H	2.4289	1.5829	5.4362
H	4.0729	2.1794	6.9944
O	-6.2083	-1.1649	-6.7357
O	-7.5326	-2.1163	-5.2148
C	-0.2674	4.9084	-0.4937
C	-0.7027	5.8318	0.4635
C	-0.7616	7.1864	0.1477
C	-0.4036	7.6251	-1.1110
C	0.0049	6.7216	-2.0732
C	0.0762	5.3658	-1.7576
C	4.3246	1.9259	6.1142
Zn	0.4384	0.0660	0.3313
H	2.9523	3.6508	3.0955
H	3.6700	-1.5265	4.0463
H	2.8335	-3.6305	3.0322
H	-0.8742	-4.8260	-0.6315
H	6.3355	2.1496	6.3877
H	6.9373	1.5046	4.2289
H	5.2988	0.9540	2.6584
H	-0.3034	-5.6064	1.6168
H	0.5631	-7.7850	1.7291
H	2.7785	-8.2075	1.1335
H	4.1300	-6.4440	0.3713
H	3.2851	-4.2767	0.2894
*