! UKS B3LYP ma-def2-SVP OPT NumFreq
%basis

end 

%scf
  maxiter 200
end

%pal 
	nprocs 16
end
* xyz 0 1
H	2.3421	-3.6750	3.2722
H	-1.2041	2.5789	4.5015
H	2.6595	-4.5251	0.9353
H	-0.0780	0.5358	5.3819
H	1.6013	-2.6964	-3.9600
H	0.5005	-0.6698	-4.8498
H	-1.8397	3.5758	-2.7119
H	2.8997	-0.7084	5.0314
H	-2.2686	4.4307	-0.4432
H	3.3576	-1.4735	7.1780
H	2.1145	-7.3555	-1.8795
H	0.1768	-3.8199	7.1200
H	4.7576	-4.9008	-3.7198
H	-0.3881	-3.0452	4.9950
H	3.7720	-3.0452	-2.6913
H	1.0491	-5.4843	-0.9172
H	-2.5334	0.6266	-4.5470
H	-2.9804	1.5115	-6.6704
H	0.4044	3.6850	-6.5207
H	0.8496	2.8581	-4.3906
H	-0.7127	5.3243	1.4478
H	-1.6956	7.1809	2.4651
H	-4.3967	4.7563	4.2728
H	-3.4637	2.9141	3.1769
H	-2.2868	-1.5768	-0.7096
H	-2.9777	-0.0834	1.5508
H	-3.9143	-1.1248	0.7778
H	-3.4628	0.2325	0.0598
C	-0.8460	1.7404	2.5446
C	-0.8478	1.8621	3.9905
C	-0.2339	0.7406	4.4659
C	0.1324	-0.0689	3.3494
C	2.0247	-3.2809	2.4690
C	0.8260	-1.2619	3.4181
C	2.2070	-3.7291	1.1892
C	1.2323	-2.0589	2.3210
C	1.6049	-2.8027	0.3105
C	1.1579	-1.9130	-1.9901
C	1.6330	-2.8761	-1.1048
C	1.2132	-1.9961	-3.4490
C	0.6121	-0.8929	-3.9332
C	0.1632	-0.1037	-2.7937
C	-0.5068	1.1144	-2.8778
C	-0.9049	1.9085	-1.8034
C	-1.5877	3.1488	-1.9018
C	-1.8216	3.6241	-0.6707
C	-1.2431	2.6407	0.2529
C	2.3167	-1.3305	5.4531
C	-1.3374	2.7209	1.6521
C	2.5905	-1.8067	6.7273
C	1.1760	-1.7797	4.8035
C	2.3258	-4.0846	-1.6922
C	1.8135	-5.3665	-1.4684
C	0.7281	-3.1707	6.7005
C	2.4319	-6.4783	-2.0618
C	0.3890	-2.7119	5.4289
C	3.5190	-6.2851	-2.9251
C	4.0105	-5.0216	-3.1447
C	3.4238	-3.9146	-2.5345
C	4.0304	-7.4298	-3.6467
C	-0.7825	1.6448	-4.2423
C	-1.9331	1.2506	-4.9363
C	-2.1961	1.7732	-6.2021
C	-1.3111	2.6765	-6.7777
C	-0.1949	3.0677	-6.1168
C	0.0716	2.5683	-4.8517
C	-1.5704	3.2184	-8.0949
C	-1.9667	3.9197	2.2435
C	-1.4589	5.2064	2.0227
C	-2.0338	6.3096	2.6369
C	-3.0956	6.1386	3.4950
C	-3.6459	4.8683	3.7012
C	-3.0811	3.7758	3.0574
C	-3.6577	7.2650	4.1932
C	-3.1862	-0.4756	0.6771
N	-0.2421	0.5648	2.1820
N	0.9802	-1.7952	1.0234
N	0.5205	-0.7548	-1.6334
N	1.8298	-2.7119	7.3579
N	-0.7054	1.6023	-0.4657
N	4.4276	-8.3186	-4.2736
N	-1.7935	3.6386	-9.1746
N	-4.0358	8.1653	4.7760
O	-2.0002	-1.1489	0.1492
Zn	-0.0042	-0.1717	0.2710
*