! UKS B3LYP ma-def2-SVP OPT NumFreq
%basis
NewGTO I "ma-def2-TZVP" end
end 

%scf
  maxiter 200
end

%pal 
	nprocs 16
end
* xyz 0 1
N	-0.9957	-1.5781	-0.8176
H	-1.6302	-2.6561	4.1141
H	-0.4463	-0.7143	5.0969
C	0.7023	1.0558	3.2151
C	1.1809	1.8522	2.1511
C	1.8731	3.1138	2.3053
C	2.0896	3.5882	1.0539
C	1.5685	2.6127	0.1247
H	-4.2359	-3.3086	1.6192
C	1.0190	1.5458	4.6079
H	-1.6616	-6.9318	3.0142
C	0.0051	1.9861	5.4467
H	-0.6264	-5.0021	2.1478
C	0.2833	2.4484	6.7319
C	-1.1404	-1.8089	2.1885
C	1.6009	2.4530	7.1747
C	-1.2072	-1.9519	3.6345
C	2.6290	2.0156	6.3648
C	-0.5566	-0.8961	4.1721
C	2.3224	1.5680	5.0732
C	-0.0597	-0.0969	3.0789
C	-1.6444	-2.7327	1.2754
I	1.9844	3.0486	9.1541
N	0.9957	1.5781	0.8176
C	-2.3234	-3.9444	1.8250
C	-3.7006	-4.0303	1.9286
C	-4.3219	-5.1534	2.4809
C	-3.5589	-6.2064	2.8777
C	-2.1837	-6.1834	2.7522
C	-1.5725	-5.0325	2.2280
I	-4.4571	-7.9599	3.6053
N	-0.4483	-0.6617	1.8874
H	-5.2660	-5.1811	2.5752
H	5.2660	5.1811	-2.5752
H	1.6302	2.6561	-4.1141
H	0.4463	0.7143	-5.0969
H	4.2359	3.3086	-1.6192
H	1.6616	6.9318	-3.0142
H	0.6264	5.0021	-2.1478
C	1.1404	1.8089	-2.1885
C	1.2072	1.9519	-3.6345
C	0.5566	0.8961	-4.1721
H	-2.1260	-3.5282	-3.1219
C	0.0597	0.0969	-3.0789
H	-2.5075	-4.4105	-0.8275
H	0.8935	-1.9731	-5.1406
H	0.4169	-2.7557	-7.2972
H	-3.5265	-2.0184	-6.6772
H	-3.0236	-1.2736	-4.5037
C	1.6444	2.7327	-1.2754
C	2.3234	3.9444	-1.8250
C	-0.7023	-1.0558	-3.2151
C	3.7006	4.0303	-1.9286
C	-1.1809	-1.8522	-2.1511
C	4.3219	5.1534	-2.4809
C	-1.8731	-3.1138	-2.3053
C	3.5589	6.2064	-2.8777
C	-2.0896	-3.5882	-1.0539
C	2.1837	6.1834	-2.7522
C	-1.5685	-2.6127	-0.1247
C	1.5725	5.0325	-2.2280
C	-1.0190	-1.5458	-4.6079
I	4.4571	7.9599	-3.6053
C	-0.0051	-1.9861	-5.4467
N	0.4483	0.6617	-1.8874
C	-0.2833	-2.4484	-6.7319
Zn	0.0000	0.0000	0.0000
C	-1.6009	-2.4530	-7.1747
C	-2.6290	-2.0156	-6.3648
C	-2.3224	-1.5680	-5.0732
H	2.1260	3.5282	3.1219
H	2.5075	4.4105	0.8275
H	-0.8935	1.9731	5.1406
H	-0.4169	2.7557	7.2972
H	3.5265	2.0184	6.6772
H	3.0236	1.2736	4.5037
I	-1.9844	-3.0486	-9.1541
*