! UKS B3LYP ma-def2-SVP OPT NumFreq
%basis

end 

%scf
  maxiter 200
end

%pal 
	nprocs 16
end
* xyz 0 1
H	-1.8046	4.2431	-2.7635
H	-3.5983	-3.5513	0.1437
C	-1.8145	2.3399	-0.2347
H	-1.5683	-4.7612	-0.6230
C	-3.1841	2.7299	-0.0261
H	-5.5030	-0.6667	-0.9142
C	-3.8470	1.6184	0.3718
H	-7.6629	-1.3820	-0.3892
C	-2.9159	0.5329	0.3432
H	-8.1090	-2.2741	1.7187
H	-6.4265	-2.4776	3.2833
C	-0.8050	3.2489	-0.5123
H	-4.2431	-1.8046	2.7635
C	-1.1770	4.6475	-0.8667
Ni	0.0000	0.0000	0.0000
C	-1.0447	5.6815	0.0614
H	3.5983	3.5513	0.1437
C	-2.3399	-1.8145	0.2347
C	-1.4612	6.9655	-0.2521
H	1.5683	4.7612	-0.6230
C	-2.7299	-3.1841	0.0261
H	5.5030	0.6667	-0.9142
C	-1.9923	7.2275	-1.5019
C	-1.6184	-3.8470	-0.3718
H	7.6629	1.3820	-0.3892
C	-2.1158	6.2333	-2.4259
C	-0.5329	-2.9159	-0.3432
C	-3.2489	-0.8050	0.5123
H	8.1090	2.2741	1.7187
C	-1.7130	4.9338	-2.1179
N	-1.6497	0.9936	-0.0076
C	-4.6475	-1.1770	0.8667
H	6.4265	2.4776	3.2833
C	-5.6815	-1.0447	-0.0614
H	4.2431	1.8046	2.7635
H	3.5513	-3.5983	-0.1437
C	-6.9655	-1.4612	0.2521
H	4.7612	-1.5683	0.6230
C	2.3399	1.8145	0.2347
C	-7.2275	-1.9923	1.5019
C	2.7299	3.1841	0.0261
H	0.6667	-5.5030	0.9142
C	-6.2333	-2.1158	2.4259
C	1.6184	3.8470	-0.3718
H	1.3820	-7.6629	0.3892
C	-4.9338	-1.7130	2.1179
C	0.5329	2.9159	-0.3432
H	2.2741	-8.1090	-1.7187
C	3.2489	0.8050	0.5123
N	-0.9936	-1.6497	0.0076
H	2.4776	-6.4265	-3.2833
C	4.6475	1.1770	0.8667
H	1.8046	-4.2431	-2.7635
C	5.6815	1.0447	-0.0614
C	1.8145	-2.3399	-0.2347
C	6.9655	1.4612	0.2521
C	3.1841	-2.7299	-0.0261
C	7.2275	1.9923	1.5019
C	3.8470	-1.6184	0.3718
C	6.2333	2.1158	2.4259
C	2.9159	-0.5329	0.3432
C	4.9338	1.7130	2.1179
C	0.8050	-3.2489	-0.5123
N	0.9936	1.6497	0.0076
H	-3.5513	3.5983	-0.1437
C	1.1770	-4.6475	-0.8667
H	-4.7612	1.5683	0.6230
C	1.0447	-5.6815	0.0614
C	1.4612	-6.9655	-0.2521
H	-0.6667	5.5030	0.9142
C	1.9923	-7.2275	-1.5019
H	-1.3820	7.6629	0.3892
C	2.1158	-6.2333	-2.4259
H	-2.2741	8.1090	-1.7187
C	1.7130	-4.9338	-2.1179
N	1.6497	-0.9936	-0.0076
H	-2.4776	6.4265	-3.2833
*