! UKS B3LYP ma-def2-SVP OPT NumFreq
%basis
NewGTO Br "ma-def2-TZVP" end
NewGTO Pd "ma-def2-TZVP" end
end 

%scf
  maxiter 200
end

%pal 
	nprocs 16
end
* xyz 0 1
H	0.4337	-0.8581	5.1447
H	3.1300	0.6861	-6.8396
H	1.3962	4.1805	-5.9986
H	-3.0111	-3.8669	2.4168
H	0.7554	3.3925	-3.9239
H	-3.7877	-3.9157	0.0919
H	1.0153	4.3109	2.2782
H	-2.1528	-1.6700	-4.4072
H	1.9468	6.0531	3.4781
H	-0.3371	-0.1297	-5.0198
H	2.8078	4.0293	-7.9566
H	3.6356	2.6851	-8.2204
H	2.0988	2.7776	-8.6580
H	5.0157	3.6631	4.5223
H	3.5205	6.9247	4.9495
H	4.0906	1.9398	3.2661
H	4.2229	5.8511	5.9068
H	5.0039	6.4163	4.6292
Pd	-0.1213	-0.3421	0.1001
C	1.1720	0.8185	2.5777
C	1.2780	0.6046	4.0139
C	0.5413	-0.4670	4.2857
C	-0.0566	-0.9367	3.0881
C	-0.9872	-1.9546	2.9519
C	-1.6621	-2.3436	1.8083
C	-2.6866	-3.3246	1.7077
C	1.5346	1.5329	-1.6355
C	-3.1118	-3.3505	0.4462
C	2.4579	2.6174	-1.5503
C	-2.3628	-2.3764	-0.2713
C	2.6058	2.9040	-0.2233
C	-2.4289	-2.1028	-1.6383
C	1.8190	1.9468	0.4927
C	-1.5851	-1.3605	-2.3858
C	1.7972	1.8582	1.8873
C	-1.5643	-1.2342	-3.8019
C	1.5526	1.5657	-4.1404
C	-0.5758	-0.3964	-4.1394
C	2.2587	0.7568	-5.0130
C	0.0630	0.0285	-2.9043
C	2.6441	1.2493	-6.2498
C	1.0542	0.9866	-2.8462
C	2.3430	2.5338	-6.6443
C	1.6320	3.2930	-5.7526
C	1.2410	2.8274	-4.5132
C	2.3887	5.2123	3.4594
C	2.4489	2.9458	2.6753
C	3.5720	5.0551	4.1532
C	1.8351	4.1746	2.7375
C	2.7565	3.0512	-7.9860
C	4.1271	6.1556	4.9786
C	4.1951	3.8074	4.0649
C	3.6388	2.7746	3.3230
N	-0.5635	-0.5715	-1.8481
H	1.7736	1.1279	4.6335
Br	-1.4732	-2.8725	4.5478
N	0.3653	-0.1526	2.0315
Br	-3.8867	-2.9042	-2.5787
N	1.1683	1.1259	-0.3761
N	-1.4537	-1.7715	0.5785
H	2.8855	3.0562	-2.2762
H	3.1279	3.6034	0.1515
H	2.4791	-0.1337	-4.7658
*