! UKS B3LYP ma-def2-SVP OPT NumFreq
%basis

end 

%scf
  maxiter 200
end

%pal 
	nprocs 16
end
* xyz 0 1
Mn	0.3259	0.3831	-0.0643
H	5.7068	-4.7067	-2.7762
H	4.0429	-2.8374	1.3307
H	-3.7235	3.1988	-1.4144
H	-6.9491	2.3203	1.1610
H	-0.3009	1.7580	4.8152
H	3.7074	-1.3933	3.3230
H	-0.5455	-2.1664	1.8386
H	0.7743	2.0471	-5.2947
H	-2.6268	2.6309	-3.5641
H	2.0467	-2.8975	-3.5976
H	-4.9099	1.3987	0.4983
H	-2.3813	2.5390	3.7124
H	0.7178	-1.2471	-4.8873
H	2.0809	-4.7055	0.1600
H	3.3222	-6.6530	-0.1664
H	0.2432	2.3055	-7.5582
H	-1.6819	1.3035	-8.4205
H	-2.5496	-0.1883	-4.7633
H	5.1703	-6.6428	-1.5894
H	-3.6442	-2.8998	-1.4949
H	-2.1920	-1.0986	-1.5648
H	-3.5474	-4.3881	0.3180
H	-3.0563	0.0316	-7.0268
H	-1.9719	-3.9835	2.0234
C	-1.2572	1.4627	-2.3999
C	-2.1932	2.0218	-0.4801
C	-1.5272	1.7946	1.8893
C	2.1025	-0.4957	2.2257
C	-0.8435	0.9243	-4.7974
C	2.4381	-1.7450	0.4359
C	1.6432	-1.6769	-1.8872
C	2.0105	0.4045	4.5469
C	-2.4284	2.1904	0.8926
C	0.2853	1.0266	2.8925
C	0.4088	-0.2434	-3.0203
C	-3.7102	2.8346	1.3062
C	3.3956	-2.1495	1.4237
C	-2.9517	2.6560	-1.5280
C	-0.5179	0.7511	-3.3517
C	2.3669	-2.2755	-0.8568
C	-6.1349	2.7562	1.3848
C	-0.5200	1.6640	3.8960
C	3.2054	-1.3677	2.5167
C	-1.1864	-2.3159	1.1533
C	-0.0154	1.6479	-5.6418
C	3.1443	-3.5241	-1.1190
C	-2.3617	2.3352	-2.7013
C	1.6232	-2.1217	-3.2519
C	-4.9186	2.2112	0.9914
C	-1.6483	2.1055	3.2915
C	0.8869	-1.2276	-3.9523
C	1.4782	0.3415	3.1536
C	2.8190	-4.6981	-0.4387
C	4.2256	-3.5429	-2.0036
C	3.5620	-5.8572	-0.6264
C	-0.3246	1.7969	-6.9919
C	-1.4620	1.2009	-7.5011
C	4.9704	-4.7044	-2.1758
C	-1.9785	0.3199	-5.3271
C	4.6477	-5.8571	-1.4802
C	-3.0158	-2.7681	-0.7956
C	-2.1430	-1.6976	-0.8293
H	-2.9381	4.4854	2.2258
C	-2.9607	-3.6419	0.2703
C	-2.2823	0.4539	-6.6718
C	-2.0300	-3.4064	1.2702
H	-6.9830	4.3131	2.3812
H	-4.9799	5.3843	2.9257
N	-0.3553	1.1103	1.6789
N	1.6665	-0.7211	0.9386
N	-1.1594	1.3074	-1.0387
N	0.8869	-0.5291	-1.7675
N	-1.2282	-1.4624	0.1269
H	3.3178	2.4574	6.7316
Cl	1.7555	2.3848	-0.2819
H	3.0265	0.6188	8.1427
H	1.5109	-1.5089	5.0543
H	2.1715	-1.3785	7.2816
C	-3.7477	4.0348	2.0185
C	-6.1549	3.9388	2.1064
C	-4.9644	4.5755	2.4260
C	2.9500	1.6501	6.3911
C	2.5790	1.5658	5.0574
C	1.8742	-0.6987	5.3926
C	2.2627	-0.6202	6.7168
C	2.7845	0.5596	7.2267
H	2.7151	2.3112	4.4855
H	4.4534	-2.7592	-2.4887
*