! UKS B3LYP ma-def2-SVP OPT NumFreq
%basis

end 

%scf
  maxiter 200
end

%pal 
	nprocs 16
end
* xyz 0 1
H	-1.9042	-4.5033	-1.5839
H	-3.9870	-3.9677	-0.0634
H	-4.9310	-6.0722	0.3716
H	-1.8270	-6.9738	2.8039
H	-0.9036	-4.8639	2.3924
H	-2.2226	-0.8218	-7.4269
H	-2.0250	-0.1503	-5.2019
C	-1.5339	-3.6313	-1.6565
C	-1.3104	-2.6975	-0.5739
C	-1.6528	-2.9101	0.7801
C	-2.3325	-4.2126	1.1031
Zn	0.0134	0.0044	-0.0004
C	-3.5438	-4.5746	0.5176
H	-1.1428	-3.3959	-3.6640
C	-4.1108	-5.8233	0.7815
C	-3.4708	-6.6885	1.6371
C	-2.2692	-6.3588	2.2287
C	-1.7172	-5.1101	1.9684
H	1.4476	-2.1929	-4.8717
H	1.2328	-2.9128	-7.0896
H	1.1900	3.5164	-3.5768
H	0.3993	1.5666	-4.8905
C	-0.6281	-1.7300	-2.4254
C	-1.1171	-3.0285	-2.7879
Cl	-4.1948	-8.2431	1.9726
C	-1.3770	-2.0261	1.8379
H	4.6360	5.7756	-2.5957
H	3.7482	3.6738	-2.0618
H	-2.3820	-2.8442	3.5377
C	0.2286	0.5400	-3.0119
C	-0.2147	-0.7478	-3.3456
C	1.4981	3.0024	-0.7806
C	0.9821	2.2542	-1.8425
C	0.9488	2.6646	-3.2336
C	0.5063	1.6043	-3.9470
C	-0.2900	-1.1151	-4.8002
C	0.6917	-1.9278	-5.3840
C	0.5722	-2.3503	-6.7036
C	-0.5197	-1.9399	-7.4478
C	-1.4857	-1.1124	-6.9040
C	-1.3597	-0.7141	-5.5811
C	-1.8162	-2.1606	3.1993
C	2.0891	4.3412	-1.0941
N	-0.7269	-1.5466	-1.0681
N	-0.5981	-0.8907	1.7309
C	3.8266	5.7070	-2.1033
C	3.2877	4.4596	-1.7916
Cl	-0.7069	-2.4875	-9.0955
H	-1.4197	-0.9873	4.8353
N	0.4870	0.9638	-1.7264
H	1.2125	-0.7464	5.4067
H	1.5317	-0.2068	7.6623
H	2.2472	2.8301	3.6417
H	2.7810	4.0089	1.5338
H	0.1511	3.5379	6.9374
H	-0.1827	2.9782	4.6908
H	0.6319	5.4406	-0.1956
H	1.5302	7.5572	-0.6932
C	-1.2901	-1.1514	3.9099
C	-0.4873	-0.3602	3.0032
C	0.3223	0.7270	3.3630
C	0.9976	1.5586	2.4383
C	0.9932	0.1255	5.7140
C	1.1912	0.4417	7.0550
C	1.9150	2.6202	2.7757
C	2.2093	3.2554	1.6232
C	1.5101	2.5960	0.5557
C	0.4812	1.0526	4.8067
C	0.8823	1.7174	7.4864
C	0.3675	2.6673	6.6231
C	0.1705	2.3282	5.2887
C	1.4448	5.5052	-0.6830
C	1.9755	6.7673	-0.9761
C	3.1606	6.8413	-1.6842
N	0.8177	1.5217	1.0674
Cl	1.1369	2.1400	9.1588
Cl	3.8464	8.4188	-2.0130
*