! UKS B3LYP ma-def2-SVP OPT NumFreq
%basis

end 

%scf
  maxiter 200
end

%pal 
	nprocs 16
end
* xyz 0 1
Zn	0.0300	-0.1016	0.0466
H	-3.5664	-2.5835	2.8218
H	-4.6178	-0.3869	2.3075
H	-2.4112	-4.8627	0.8806
H	-3.1039	-6.8714	1.8462
H	-5.1504	1.1688	-0.5077
H	-2.5046	1.0152	-1.9708
H	-3.0991	0.7093	-3.4242
H	-3.3570	-0.3160	-2.2217
H	0.6803	0.5686	-3.7162
H	-0.6122	1.1816	-4.4326
H	-0.2931	1.5499	-2.9083
H	-2.9368	4.1534	0.0828
H	-0.8272	4.9145	-0.9643
C	0.4011	-2.8519	1.3673
C	-0.9122	-2.8873	1.8570
C	-1.8333	-1.8298	1.7864
C	-3.1684	-1.8620	2.3493
C	-3.7394	-0.6617	2.0718
C	-2.7622	0.1156	1.3523
H	-3.8930	3.1324	2.7853
C	-2.9473	1.4425	0.9349
H	-5.9869	4.1426	2.9815
H	-7.6629	3.6831	1.4278
H	-7.2401	2.2037	-0.3266
H	1.0072	3.8570	-3.6557
H	1.7596	5.8711	-4.6038
H	2.8112	7.4622	-3.2644
H	3.2048	7.0327	-1.0221
H	2.5159	5.0015	-0.0838
C	-1.3800	-4.1681	2.4915
C	-2.1609	-5.0667	1.7740
C	-2.5800	-6.2595	2.3502
C	-2.2358	-6.5590	3.6565
C	-1.0397	-4.4827	3.8023
C	-4.3095	2.0577	1.1102
C	-5.3139	1.7818	0.1996
C	-2.7128	0.3099	-2.6171
C	-0.2511	0.8435	-3.5870
S	-1.2204	-0.5652	-3.0440
C	-1.9724	2.2488	0.3182
N	0.9990	-1.7899	0.7304
C	-2.1538	3.6316	-0.0511
N	-1.6073	-0.6190	1.1903
C	-1.0054	4.0460	-0.6229
C	-0.0959	2.9273	-0.6187
N	-0.7051	1.8373	-0.0369
O	-0.5941	-1.0262	-1.7554
C	1.2051	2.9445	-1.1552
H	4.8941	0.4505	-1.6316
H	3.3004	-4.0275	0.8341
H	1.1856	-4.7962	1.8578
C	-4.5704	2.9391	2.1494
C	-5.8172	3.5414	2.2663
C	-6.8118	3.2698	1.3475
C	-6.5608	2.3916	0.3105
H	-2.5250	-7.3728	4.0514
H	-1.2402	-5.8687	5.2808
H	4.5555	-2.1809	-2.4494
H	-0.5053	-3.8804	4.3076
H	6.6679	-3.1321	-2.6830
H	7.9914	-3.5347	-0.8018
C	1.6756	4.2274	-1.7727
H	7.2189	-2.8980	1.3117
C	1.4580	4.4948	-3.1150
C	1.8974	5.6993	-3.6793
C	2.5321	6.6377	-2.8852
C	2.7626	6.3864	-1.5594
H	5.0911	-1.9683	1.5501
C	2.3439	5.1786	-1.0010
H	3.8521	2.6546	-2.1027
C	2.1023	1.8655	-1.1394
C	3.4437	1.9181	-1.6642
C	4.0093	0.7136	-1.4097
C	3.0216	-0.0959	-0.7389
C	3.2339	-1.3971	-0.2519
C	2.2832	-2.1766	0.4342
C	2.4956	-3.5272	0.9063
C	1.3465	-3.9448	1.4679
C	4.5952	-1.9865	-0.4240
C	5.0891	-2.3333	-1.6775
C	-1.4725	-5.6701	4.3817
C	6.3483	-2.9002	-1.8186
C	7.1370	-3.1299	-0.7077
C	6.6727	-2.7649	0.5461
C	5.4062	-2.2056	0.6852
N	1.8577	0.6299	-0.5978
*