! UKS B3LYP ma-def2-SVP OPT NumFreq
%basis

end 

%scf
  maxiter 200
end

%pal 
	nprocs 16
end
* xyz 0 1
Mn	0.8522	0.4349	0.0318
B	-4.6209	-1.4438	-1.0433
H	2.5450	2.2258	0.9920
H	3.4473	1.2449	0.5805
H	3.6151	-3.3622	-1.9987
H	3.4412	-3.9684	0.3896
H	0.3817	-2.2526	4.3571
H	-1.3097	-0.4629	4.5695
H	1.3776	3.1617	-4.2765
H	2.3760	0.9683	-4.8181
H	4.1525	-2.5823	3.1483
H	3.5932	-6.1200	4.9934
H	1.3995	-6.1714	4.2245
H	0.6249	-4.4750	2.8154
H	-0.9935	2.3866	5.0631
H	4.9393	-4.3190	4.4977
H	-2.6376	2.9349	6.6396
H	-4.8787	2.8224	6.0618
H	-5.4866	2.0200	3.9841
H	-3.8657	1.4523	2.4082
H	1.1235	-1.6705	-4.8809
H	1.9005	-2.4343	-6.9356
H	4.1866	-2.7608	-7.2614
H	-0.2871	-2.4633	-1.4653
H	-2.5707	0.4216	-0.1856
H	-5.1243	-4.1887	-0.5596
H	5.6689	-2.3266	-5.5228
H	4.9077	-1.5274	-3.4851
H	-6.1287	-2.8444	2.9229
H	-4.9553	-1.9825	-1.9910
H	-5.0209	-0.4564	-0.9405
C	3.1722	-2.8598	-1.3251
C	3.0690	-3.1985	-0.0241
C	2.2913	-2.1799	0.6203
C	1.8242	-2.2478	1.9385
C	0.8792	-1.3709	2.4795
C	0.2147	-1.5589	3.7289
C	-0.6942	-0.5708	3.8544
C	-0.5652	0.2866	2.7146
C	-1.2331	1.4890	2.5508
C	-0.9945	2.3707	1.4961
C	-0.2502	3.2422	-0.3963
C	0.3027	3.3755	-1.6754
C	0.9845	2.3501	-2.3275
H	-2.0235	4.1474	2.0632
C	1.4467	2.4152	-3.6928
H	-1.1468	5.1428	-0.0274
C	1.9937	1.2193	-3.9860
C	1.8964	0.3907	-2.8138
C	2.4169	-0.9009	-2.7133
C	2.4989	-1.6126	-1.5102
C	2.3175	-3.3652	2.8079
C	3.5883	-3.3220	3.3380
C	4.0553	-4.3560	4.1526
C	3.2600	-5.4108	4.4554
C	1.9723	-5.4530	3.9848
C	1.5126	-4.4343	3.1534
C	-2.2615	1.8793	3.5695
C	-1.9116	2.3141	4.8307
C	-2.8905	2.6487	5.7710
H	-1.8739	4.3066	-2.8810
C	-4.2111	2.5641	5.4373
H	-2.2241	6.2491	-4.0963
C	-4.5674	2.1068	4.2040
H	-0.5242	7.8202	-4.2990
C	-3.6019	1.7656	3.2658
H	1.5552	7.3780	-3.3870
H	1.9479	5.3953	-2.2459
C	2.9344	-1.5137	-3.9737
C	2.0562	-1.7948	-5.0117
C	2.5146	-2.2533	-6.2320
C	3.8631	-2.4474	-6.4247
C	4.2887	-1.7138	-4.1809
C	-1.0568	-1.9543	-1.2415
C	-2.2622	-0.4002	-0.5506
C	-5.3091	-3.6103	0.1707
C	4.7386	-2.1835	-5.3936
C	-5.8405	-2.8798	2.0197
N	1.9594	-1.2027	-0.3036
N	0.3941	-0.2324	1.8661
N	-0.2203	2.0933	0.3722
N	1.2762	1.1064	-1.8050
N	-0.9785	-0.7039	-0.7205
N	-2.2793	-2.4084	-1.4112
C	-1.4739	3.7124	1.4231
N	-3.0639	-1.3865	-0.9525
N	-5.1657	-2.2969	0.1181
C	-1.0032	4.2532	0.2757
N	-5.5127	-1.7818	1.3412
N	-5.7381	-4.0356	1.3527
O	2.6694	1.4052	0.8588
C	0.0741	4.6499	-2.4187
C	-1.1626	4.9275	-2.9858
C	-1.3766	6.0869	-3.6983
C	-0.3710	7.0073	-3.8324
C	0.8535	6.7454	-3.2899
C	1.0846	5.5705	-2.5991
*