! UKS B3LYP ma-def2-SVP OPT NumFreq
%basis

end 

%scf
  maxiter 200
end

%pal 
	nprocs 16
end
* xyz 0 1
Ni	-0.0127	0.3363	0.0002
H	4.8720	-0.9906	-6.7689
H	6.2268	-1.1293	-5.9324
H	-1.6228	1.2229	3.8038
H	6.6800	-0.8538	-8.2438
H	1.4967	1.4522	-3.7950
H	5.9233	0.5553	-8.2313
H	7.5742	1.4891	-6.9086
H	8.2846	0.7902	-8.1595
C	4.0679	0.4982	-0.9785
H	8.2876	0.0671	-6.7310
H	3.5545	-1.4511	4.1379
H	2.8262	-0.7965	5.4040
H	-5.6650	-1.1996	0.6772
H	-5.8743	0.2391	0.0065
H	-6.0403	0.0616	1.5898
H	-3.8570	-0.5061	-4.5144
H	-3.2020	-1.9115	-4.1208
H	-2.6636	-1.1071	-5.3982
H	3.6203	2.0310	-3.8670
N	1.7641	0.4741	-0.6883
N	0.7399	0.3145	1.7634
H	3.6502	-0.2288	-4.5788
N	-1.7907	0.2522	0.6914
N	-0.7581	0.2886	-1.7642
C	5.5479	0.3528	-0.7810
C	2.0853	0.9102	-1.9522
C	3.5078	0.9727	-2.1225
C	4.1938	1.3826	-3.3878
C	2.9693	0.2169	-0.0673
H	-0.1842	1.2340	5.5801
C	4.4999	0.2075	-4.3182
C	5.2437	0.6450	-5.5710
C	3.0873	-0.1520	1.2817
H	1.1618	0.5424	6.1051
C	5.6774	-0.5011	-6.4647
H	-1.2026	-0.8871	5.3408
C	2.0095	-0.0592	2.1595
C	2.0806	-0.1337	3.6226
H	0.1493	-1.6046	5.7966
C	6.4788	-0.0586	-7.6895
C	0.8842	0.3223	4.0782
H	-1.3715	-1.5916	7.5768
C	7.7687	0.6311	-7.3420
C	0.0572	0.5686	2.9263
H	-0.0840	-0.7299	7.9660
C	-1.2829	0.8560	2.9962
H	-2.4737	0.4961	7.0178
C	-2.1583	0.6400	1.9595
H	-1.2265	1.2525	7.6732
C	-3.5748	0.5668	2.1354
H	-2.9941	-0.4876	9.1104
C	-4.0955	0.0629	0.9831
H	-1.7290	0.2317	9.7724
C	-2.9715	-0.0969	0.0594
H	-2.7249	2.3361	9.4199
C	-3.0503	-0.4198	-1.2935
H	-3.7104	1.4096	10.2781
C	-1.9829	-0.2151	-2.1681
H	-3.9796	1.6352	8.7176
C	-2.0276	-0.3136	-3.6230
H	-5.1894	1.3061	3.1331
C	-0.8984	0.2859	-4.0802
H	-3.8002	1.7166	3.8016
C	-0.1073	0.6208	-2.9253
H	-4.9202	-0.9148	4.0083
C	1.1951	1.0446	-2.9905
H	-3.5758	-0.4396	4.7400
H	4.9737	1.3209	2.4085
H	-4.8171	1.1212	6.0207
C	3.1815	-0.6234	4.5084
H	-6.1600	0.6737	5.2780
H	7.0628	0.7180	3.2334
C	-5.5428	-0.2345	0.7979
H	-4.6705	-0.9093	7.1286
H	7.7597	-1.5047	3.1360
C	-3.0236	-1.0204	-4.4890
H	6.3824	-3.1154	2.1843
H	-5.8594	-1.5269	6.2536
H	4.2932	-2.5218	1.3377
H	-6.4725	-0.8205	8.5308
H	-6.3155	0.6866	8.0176
C	4.4139	-0.5431	1.8055
H	-8.0457	0.2927	6.4294
C	5.2550	0.4153	2.3648
H	-8.5632	0.1152	7.9345
C	6.4936	0.0582	2.8541
H	-8.2387	-1.1737	7.0418
H	0.0835	1.2598	-5.6048
C	6.9085	-1.2589	2.7903
C	0.3874	0.4297	5.4970
H	-1.2041	0.4499	-6.1101
C	6.0932	-2.2111	2.2305
C	4.8500	-1.8596	1.7323
C	-0.4112	-0.7994	5.9283
H	1.2709	-0.7706	-5.3171
H	-0.0197	-1.6064	-5.7498
C	-0.8786	-0.7571	7.3776
H	1.4803	-1.5639	-7.5256
C	-1.7686	0.4238	7.7088
H	0.1568	-0.7761	-7.9498
C	-2.4303	0.3247	9.0798
H	2.4389	0.6367	-7.0194
C	-3.2868	1.5332	9.4025
C	-4.2937	0.9677	3.3841
H	1.1961	1.2469	-7.8200
C	-4.4664	-0.1406	4.4244
H	3.2105	-0.4581	-8.9433
C	-5.2844	0.3506	5.6087
H	1.8960	-0.0401	-9.7522
C	-5.5280	-0.6981	6.6809
H	2.5555	2.2048	-9.7177
C	-6.5449	-0.2338	7.7360
H	3.7354	1.3246	-10.3435
C	-7.9743	-0.2511	7.2427
H	3.8341	1.8331	-8.8277
C	-0.4213	0.4137	-5.5045
C	0.4764	-0.7637	-5.9074
C	0.9500	-0.7452	-7.3584
C	1.7849	0.4554	-7.7395
C	2.5361	0.2568	-9.0585
H	-4.8589	1.0324	-2.5751
C	3.2255	1.5150	-9.5280
H	-6.9765	0.4536	-3.3663
H	-7.7586	-1.7359	-3.1281
H	-6.4127	-3.3354	-2.1136
H	-4.3011	-2.7770	-1.3258
C	-4.3656	-0.8140	-1.8551
C	-5.1731	0.1418	-2.4761
C	-6.4319	-0.2023	-2.9480
C	-6.8950	-1.4999	-2.8086
C	-6.0972	-2.4443	-2.2064
C	-4.8426	-2.1122	-1.7351
H	6.0070	0.4961	-1.6350
H	5.7468	-0.5487	-0.4509
H	5.8575	1.0158	-0.1285
H	3.8850	0.0560	4.5613
H	5.0410	1.8405	-3.1598
H	5.0469	-0.4581	-3.8308
H	4.6596	1.2506	-6.0905
H	6.0459	1.1581	-5.3023
*