! UKS B3LYP ma-def2-SVP OPT NumFreq
%basis

end 

%scf
  maxiter 200
end

%pal 
	nprocs 16
end
* xyz 0 1
C	-3.9124	5.6080	2.1406
C	-4.0325	8.0500	1.8780
N	-4.6021	9.0427	2.0110
C	-0.2006	0.9582	-4.5980
C	-1.4082	0.5833	-6.5444
C	-2.4931	0.0008	-7.1710
C	-2.6685	0.1446	-8.5218
C	-1.7351	0.9022	-9.3095
C	-0.7158	1.4696	-8.7122
C	-0.4916	1.3434	-7.3083
C	0.5930	1.9128	-6.6476
C	0.7380	1.7257	-5.2968
H	6.3767	-4.5597	-0.6336
N	-1.2472	0.3952	-5.1851
Zn	0.0045	-0.0435	0.2409
H	2.7435	-2.7840	-3.2212
H	3.1507	-3.7991	1.9904
H	2.2823	-2.7092	4.0508
H	-0.5252	1.6628	5.1066
H	4.9133	-2.8199	-0.1220
H	3.2859	-6.7502	-1.9788
H	1.8312	-4.9894	-1.4630
H	-0.6685	-2.2435	5.0199
H	-0.5493	-2.8259	7.2749
H	2.3267	-0.0096	7.8305
H	2.1712	0.5818	5.5633
H	-1.8026	-1.6266	-1.6113
H	-3.8271	-2.7975	-1.6509
C	5.8705	-6.9149	-1.6052
H	-2.3581	-0.6909	2.0910
C	0.7286	-0.3763	-2.7403
C	1.4769	-1.2062	-3.6578
C	2.1495	-2.1149	-2.9038
C	1.7880	-1.8680	-1.5270
C	2.2969	-2.5949	-0.4349
C	2.0305	-2.3071	0.9156
C	2.5744	-3.0447	2.0340
C	2.0994	-2.4488	3.1562
C	1.2681	-1.3521	2.7413
C	0.6451	-0.4383	3.6133
C	-0.0368	0.7182	3.2357
C	-0.5626	1.7014	4.1575
C	-0.9553	2.3094	2.0197
C	-0.6138	1.6622	-2.2537
C	-0.0371	0.7257	-3.1208
C	3.2378	-3.7240	-0.7350
C	4.5694	-3.6210	-0.4992
C	5.4461	-4.6630	-0.7932
C	4.9765	-5.8159	-1.3059
C	3.6200	-5.9522	-1.5863
C	2.7604	-4.8996	-1.2869
H	-5.1251	-2.8469	0.2122
H	-4.4099	-1.7599	2.1095
C	0.7376	-0.7752	5.0760
C	-0.0633	-1.7870	5.5930
C	0.0083	-2.1398	6.9281
C	0.9101	-1.4760	7.7586
C	1.7166	-0.4618	7.2592
N	6.5399	-7.8132	-1.8226
C	1.6243	-0.1129	5.9100
C	0.9808	-1.8273	9.1574
H	-1.5336	3.4774	3.7377
H	-2.0070	4.4132	-1.5210
H	-1.3717	3.1705	-3.5729
C	-2.3135	-1.6761	-0.8118
C	-3.5452	-2.3618	-0.8547
C	-4.2926	-2.3892	0.2193
C	-3.8742	-1.7674	1.3249
C	-2.6431	-1.1356	1.3010
H	-3.6725	3.6017	2.2032
H	-1.7158	7.5978	0.7370
H	-0.6484	5.5706	0.3625
N	0.9299	-0.8038	-1.4480
N	1.2299	-1.2910	1.3642
N	-0.2894	1.1133	1.9467
N	-0.5940	1.6012	-0.8856
N	1.0295	-2.1058	10.2584
N	-1.8382	-1.1094	0.2542
C	-1.1179	2.6884	3.4117
C	-1.3783	3.0898	0.9232
H	-4.7354	5.6215	2.6159
C	-1.1798	2.7565	-0.4323
C	-1.5805	3.5658	-1.5577
C	-1.2328	2.8881	-2.6766
C	-2.0513	4.3878	1.2174
C	-3.2793	4.4140	1.9032
H	1.4958	-1.1311	-4.6039
C	-3.3495	6.8043	1.6857
C	-2.1162	6.7878	1.0283
C	-1.4876	5.5819	0.8070
H	-3.1203	-0.5007	-6.6636
H	-3.4164	-0.2612	-8.9446
H	-1.8548	0.9890	-10.2487
H	-0.1067	1.9817	-9.2309
H	1.2291	2.4279	-7.1291
H	1.4725	2.1149	-4.8383
*