! UKS B3LYP ma-def2-SVP OPT NumFreq
%basis

end 

%scf
  maxiter 200
end

%pal 
	nprocs 16
end
* xyz 0 1
Zn	0.1044	-0.0734	-0.1131
H	2.3882	-4.6488	-0.9096
H	1.7465	-3.9050	-3.1904
H	-0.5887	0.5292	-5.1828
H	-2.1161	2.2027	-4.1672
H	-3.7747	3.2710	0.7734
H	-3.0242	2.6208	3.0553
H	2.2045	-2.4080	3.9535
H	2.8577	-2.0053	-4.4716
H	1.5948	-3.0156	-8.1886
H	-0.6032	-2.5015	-7.5773
H	-1.0850	-1.8063	-5.4037
H	-6.3518	2.8826	-3.1888
H	-4.6127	1.5111	-2.4538
H	1.1533	-4.6370	2.9677
H	3.5549	2.1897	2.1178
H	2.1064	2.2264	2.7992
H	2.6693	0.8597	2.1853
H	-2.4350	4.7941	-1.4978
H	0.2415	3.8668	-0.7591
H	-4.1785	6.1633	-2.2602
H	-6.1364	5.2075	-3.1020
H	1.4408	3.1337	-1.5245
C	1.5943	-2.7763	-0.2263
C	1.9725	-3.8257	-1.1376
C	1.6239	-3.4191	-2.3827
C	1.0279	-2.1043	-2.2506
C	0.5455	-1.3282	-3.3260
C	-0.2301	-0.1558	-3.1722
C	-0.7744	0.6363	-4.2575
C	-1.5971	1.5568	-3.7021
C	-1.5379	1.3738	-2.2718
C	-2.2908	2.1052	-1.3471
C	-2.2042	1.9894	0.0493
C	-3.0628	2.6797	0.9878
C	-2.6563	2.3207	2.2325
C	-1.5539	1.3921	2.0675
C	-0.8718	0.7624	3.1241
H	3.2818	4.3642	1.6078
C	0.0807	-0.2607	2.9671
H	2.0992	5.3709	1.2191
H	1.8677	4.2588	2.3475
C	1.5968	-1.8404	3.4941
C	1.2953	-1.8705	2.0798
H	1.5539	4.6887	-1.1627
C	1.8007	-2.8079	1.1651
C	0.8375	-1.8106	-4.7099
C	2.1482	-2.1183	-5.0944
C	2.4264	-2.5856	-6.3723
C	1.4022	-2.7192	-7.3077
C	0.0984	-2.4154	-6.9423
C	-0.1855	-1.9849	-5.6514
C	-3.3564	3.0164	-1.8838
C	-5.5554	3.2720	-2.8478
C	-4.5238	2.4557	-2.4039
H	3.3172	-2.8154	-6.6094
C	2.6073	-3.9407	1.7197
C	2.0476	-4.7803	2.6814
C	2.7868	-5.8274	3.2266
C	2.0172	2.1814	0.7285
C	2.6432	1.8332	2.0786
C	1.2148	3.8194	-0.8626
C	-3.2300	4.4020	-1.8391
H	4.6066	-6.7404	3.2079
N	0.9981	-1.7504	-0.9227
C	-4.2688	5.2184	-2.2948
N	-0.6735	0.3459	-1.9752
C	-5.4293	4.6524	-2.7955
N	-1.3076	1.2065	0.7324
H	4.3161	-3.6089	0.6584
N	0.4026	-0.8708	1.7794
H	5.5543	-5.3642	1.5801
N	1.8276	3.4736	0.4309
O	1.7186	1.2857	-0.1093
H	0.8366	-0.5947	4.9570
C	2.3129	4.4554	1.4971
H	-0.6892	3.1230	4.3791
H	-1.2506	3.7235	6.5667
H	-2.0768	2.1080	8.0449
H	-2.4101	-0.0843	7.3136
H	-1.8867	-0.6800	5.1198
H	2.3928	-6.3993	3.8744
C	4.0975	-6.0362	2.8251
C	4.6604	-5.2147	1.8653
C	3.9213	-4.1702	1.3156
C	0.8512	-0.8517	4.0420
C	-1.2265	1.1575	4.5230
C	-1.0417	2.4694	4.9713
C	-1.3686	2.8275	6.2747
C	-1.8680	1.8695	7.1498
C	-2.0616	0.5669	6.7169
C	-1.7471	0.2129	5.4121
*