! UKS B3LYP ma-def2-SVP OPT NumFreq
%basis

end 

%scf
  maxiter 200
end

%pal 
	nprocs 16
end
* xyz 0 1
Ni	-0.0347	-0.0508	-0.0208
C	0.7844	-4.3385	5.3177
C	-0.6427	5.6082	-3.4048
C	4.5343	3.9785	2.5039
H	-3.2227	-1.8800	3.3784
H	4.2603	2.3123	-1.1451
H	-1.7789	0.9340	-4.6028
H	-3.4345	-0.6166	-3.6337
H	-4.4643	-2.0941	1.1917
H	1.7979	-1.1100	4.5394
H	2.7106	2.9988	-3.0054
H	-3.8413	-5.6364	-1.7657
C	7.3679	1.0194	1.5547
H	-2.4025	-5.5007	-2.4553
H	-3.7270	-5.2344	-3.3116
H	3.8116	-0.5069	3.1761
H	-5.7255	-4.5583	-2.6263
H	6.6522	-2.2977	-0.6826
H	5.4117	-3.2975	-0.5102
H	6.2958	-2.8903	0.7621
H	-3.1925	1.9416	5.5610
H	-2.3353	2.8474	4.5604
H	-1.6932	2.3523	5.9383
H	1.1861	3.9934	-7.5550
H	-6.9895	1.0932	-1.5225
H	-6.2886	1.8946	-0.3261
H	-7.1592	0.5894	-0.0128
H	1.9357	1.8111	-7.2010
H	-7.5778	-1.0760	-1.5432
H	-7.6803	-3.2714	-2.3657
H	2.2114	-0.3555	-6.7618
H	2.8031	-1.1439	-5.4999
H	7.5581	-0.8698	0.8787
H	3.3829	0.2971	-5.8892
H	0.0347	5.0793	-5.8007
H	1.4046	-3.8900	5.9293
H	1.2903	-4.9003	4.6952
N	1.3730	0.9781	-0.8439
H	0.1641	-4.8977	5.8329
N	-1.0889	0.0838	-1.6340
H	0.2314	6.0243	-3.5627
N	-1.5063	-0.8907	0.8821
H	-0.9923	5.9042	-2.5387
H	8.2473	1.1428	1.7414
N	1.0822	-0.3524	1.5240
H	-1.2629	5.8729	-4.1153
H	4.9596	3.7428	3.3548
C	-1.4947	-1.4561	7.3185
H	3.7359	4.5207	2.6758
H	5.1646	4.4920	1.9548
O	5.0565	-1.4566	0.1582
O	4.1659	2.7960	1.8189
O	-3.2700	-3.7598	-2.0650
H	6.7984	2.8004	2.2300
O	1.5997	0.3636	-5.0121
O	-1.8095	0.9311	4.5535
O	-5.3814	0.1976	-0.7918
O	0.0440	-3.3583	4.5821
O	-0.5001	4.1921	-3.3996
H	-1.6797	-1.5328	8.2207
H	-0.6595	-3.2896	7.0989
H	-2.2882	0.4693	7.1117
C	2.6704	1.1486	-0.3974
C	4.6782	0.6894	0.9890
C	2.4481	-0.1663	1.6159
C	1.3148	1.6957	-2.0278
C	3.2202	0.5197	0.7035
C	-2.2766	-0.5680	-1.9096
C	-4.3756	-1.8116	-1.4165
C	-1.5441	-0.1686	5.3030
C	0.5164	2.2906	-4.2756
C	-0.7964	0.7876	-2.7860
C	-0.6050	-1.0293	3.1686
C	-0.9183	-1.2196	4.6138
C	-1.6293	-1.1227	2.2423
C	0.7002	-0.7662	2.7858
C	5.1403	1.8740	1.5605
C	-2.9311	-1.6453	2.5444
C	-2.7052	-1.3023	0.3454
C	3.3861	2.0364	-1.2636
C	-1.7920	0.5505	-3.7864
C	-5.5544	-1.0692	-1.2864
C	-2.6923	-0.2986	-3.2574
C	0.3082	1.6030	-2.9611
C	-4.4694	-3.1061	-1.9350
C	-3.0615	-1.2420	-0.9912
C	-3.5796	-1.7767	1.3753
C	1.8337	-0.8742	3.6478
C	2.5481	2.3896	-2.2547
C	-3.3138	-5.1412	-2.4279
C	5.5890	-0.3360	0.7156
C	-0.8770	-2.5031	6.6761
C	2.9177	-0.5461	2.9204
C	-0.5816	-2.3797	5.3133
C	1.2068	1.6385	-5.3023
C	0.1058	3.6133	-4.4750
C	-1.8473	-0.2856	6.6679
C	-5.6949	-3.6598	-2.2854
C	6.4921	2.0541	1.8310
C	5.9228	-2.5741	-0.0874
C	-2.2966	2.1110	5.2048
C	6.9460	-0.1726	1.0071
C	1.0049	3.5729	-6.6976
C	-6.5456	1.0071	-0.6522
C	1.4478	2.2750	-6.5197
C	-6.7874	-1.6065	-1.6400
C	-6.8362	-2.8965	-2.1377
C	2.5766	-0.2587	-5.8575
C	0.3405	4.2534	-5.6988
*