! UKS B3LYP ma-def2-SVP OPT NumFreq
%basis
NewGTO Os "ma-def2-TZVP" end
end 

%scf
  maxiter 200
end

%pal 
	nprocs 16
end
* xyz 0 1
H	-4.9312	-1.5164	-0.0431
H	1.5164	-4.9312	-0.0431
H	-3.6616	-3.6447	-0.0200
H	3.6616	3.6447	-0.0200
H	3.6447	-3.6616	-0.0200
H	-3.6447	3.6616	-0.0200
H	-5.1476	0.6711	1.9352
H	-0.6711	-5.1476	1.9352
C	1.1962	4.8061	0.0035
H	-7.4095	1.2053	1.9717
H	-1.2053	-7.4095	1.9717
C	1.0140	5.5614	1.1519
H	-7.2032	2.3464	-1.8877
H	4.9312	1.5164	-0.0431
H	-2.3464	-7.2032	-1.8877
C	1.3248	6.9143	1.1702
H	-4.9312	1.8562	-1.9098
H	-1.8562	-4.9312	-1.9098
C	1.8090	7.5565	0.0370
H	-9.2420	2.7640	-0.6435
H	5.1476	-0.6711	1.9352
H	-2.7640	-9.2420	-0.6435
C	2.0041	6.7923	-1.1025
H	-9.5344	1.2814	-0.1182
H	7.4095	-1.2053	1.9717
H	-1.2814	-9.5344	-0.1182
C	1.7071	5.4343	-1.1189
H	-9.2859	2.4664	0.9277
H	7.2032	-2.3464	-1.8877
H	-2.4664	-9.2859	0.9277
C	2.1064	9.0339	0.0521
H	4.9312	-1.8562	-1.9098
H	9.2420	-2.7640	-0.6435
H	9.5344	-1.2814	-0.1182
H	9.2859	-2.4664	0.9277
Os	0.0000	0.0000	-0.0018
C	-3.0329	-0.5256	-0.0136
C	3.0329	0.5256	-0.0136
C	0.5256	-3.0329	-0.0136
C	-0.5256	3.0329	-0.0136
C	-3.9847	-1.6041	-0.0296
C	3.9847	1.6041	-0.0296
C	1.6041	-3.9847	-0.0296
C	-1.6041	3.9847	-0.0296
C	-3.2921	-2.7692	-0.0215
C	3.2921	2.7692	-0.0215
C	2.7692	-3.2921	-0.0215
C	-2.7692	3.2921	-0.0215
C	-1.8881	-2.4303	-0.0157
C	1.8881	2.4303	-0.0157
C	2.4303	-1.8881	-0.0157
C	-2.4303	1.8881	-0.0157
C	-3.3485	0.8405	-0.0121
C	3.3485	-0.8405	-0.0121
C	-0.8405	-3.3485	-0.0121
C	0.8405	3.3485	-0.0121
C	-4.8061	1.1962	0.0035
C	-1.1962	-4.8061	0.0035
C	-5.5614	1.0140	1.1519
C	-1.0140	-5.5614	1.1519
C	-6.9143	1.3248	1.1702
C	-1.3248	-6.9143	1.1702
C	-7.5565	1.8090	0.0370
C	-1.8090	-7.5565	0.0370
C	-6.7923	2.0041	-1.1025
C	4.8061	-1.1962	0.0035
C	-2.0041	-6.7923	-1.1025
C	-5.4343	1.7071	-1.1189
C	5.5614	-1.0140	1.1519
C	-1.7071	-5.4343	-1.1189
C	-9.0339	2.1064	0.0521
C	6.9143	-1.3248	1.1702
C	-2.1064	-9.0339	0.0521
C	7.5565	-1.8090	0.0370
C	6.7923	-2.0041	-1.1025
C	5.4343	-1.7071	-1.1189
C	9.0339	-2.1064	0.0521
N	-1.7672	-1.0628	-0.0079
N	1.7672	1.0628	-0.0079
N	1.0628	-1.7672	-0.0079
N	-1.0628	1.7672	-0.0079
N	0.0000	0.0000	1.7783
Cl	0.0000	0.0000	-2.2023
O	0.0000	0.0000	3.0148
H	-1.5164	4.9312	-0.0431
H	0.6711	5.1476	1.9352
H	1.2053	7.4095	1.9717
H	2.3464	7.2032	-1.8877
H	1.8562	4.9312	-1.9098
H	2.7640	9.2420	-0.6435
H	1.2814	9.5344	-0.1182
H	2.4664	9.2859	0.9277
*