! UKS B3LYP ma-def2-SVP OPT NumFreq
%basis

end 

%scf
  maxiter 200
end

%pal 
	nprocs 16
end
* xyz 0 1
C	3.4278	-3.7759	-2.7092
C	0.0840	0.0019	-3.0674
C	3.5166	-6.0998	-3.1741
C	1.1385	-1.8657	-3.7017
H	-2.5100	4.4192	-0.7083
C	2.2617	-3.9403	-1.9575
H	-2.0926	3.5992	-2.9830
C	-0.6342	1.1950	-3.1548
C	2.3915	-6.3048	-2.4002
C	-1.0878	1.9687	-2.0676
C	1.7631	-5.2222	-1.8020
C	-0.1089	2.5015	-5.2290
C	-2.5300	1.8554	-6.3524
C	4.1117	-7.2145	-3.8855
C	4.0362	-4.8387	-3.3279
C	0.5282	-0.7775	-4.1883
C	-1.6628	2.6555	-7.0347
Zn	0.0000	0.0000	0.0000
C	-0.9809	1.6985	-4.5252
N	0.4498	-0.6254	-1.9051
C	-2.1929	1.3830	-5.0985
N	4.5863	-8.0600	-4.4707
C	-2.0448	3.1571	-8.3393
H	3.3476	-1.6267	6.7302
H	2.7927	-0.8455	4.6358
C	-0.4413	2.9965	-6.4841
C	-1.4756	2.6848	-0.0322
C	-2.0582	3.6399	-0.9405
C	-1.8252	3.1921	-2.1898
N	-0.8768	1.6825	-0.7465
H	2.5100	-4.4192	0.7083
H	2.0926	-3.5992	2.9830
N	-2.4087	3.5246	-9.3466
C	0.6342	-1.1950	3.1548
C	1.0878	-1.9687	2.0676
C	0.1089	-2.5015	5.2290
H	-3.7993	2.9276	2.7929
C	2.5300	-1.8554	6.3524
H	-1.5215	2.5516	4.2006
C	1.6628	-2.6555	7.0347
H	-2.0573	7.1645	2.2811
H	-0.9981	5.3592	1.2919
H	-0.7163	-2.7150	4.8579
C	0.9809	-1.6985	4.5252
H	-4.7946	4.7055	3.8481
H	-0.4126	0.5659	5.0870
C	2.1929	-1.3830	5.0985
C	-1.5769	2.7556	1.3690
C	2.0448	-3.1571	8.3393
H	-0.1490	-3.5482	6.9456
C	-1.0926	1.7807	2.2585
C	0.4413	-2.9965	6.4841
C	-3.4278	3.7759	2.7092
C	1.4756	-2.6848	0.0322
C	2.0582	-3.6399	0.9405
C	-3.5166	6.0998	3.1741
C	1.8252	-3.1921	2.1898
C	-1.1385	1.8657	3.7017
N	0.8768	-1.6825	0.7465
C	-2.2617	3.9403	1.9575
N	2.4087	-3.5246	9.3466
C	-2.3915	6.3048	2.4002
C	-1.7631	5.2222	1.8020
C	-4.1117	7.2145	3.8855
C	-4.0362	4.8387	3.3279
C	-0.5282	0.7775	4.1883
C	-0.0840	-0.0019	3.0674
N	-0.4498	0.6254	1.9051
N	-4.5863	8.0600	4.4707
H	0.7163	2.7150	-4.8579
H	3.7993	-2.9276	-2.7929
H	0.1490	3.5482	-6.9456
H	1.5215	-2.5516	-4.2006
H	2.0573	-7.1645	-2.2811
H	0.9981	-5.3592	-1.2919
H	4.7946	-4.7055	-3.8481
H	0.4126	-0.5659	-5.0870
C	1.5769	-2.7556	-1.3690
H	-3.3476	1.6267	-6.7302
H	-2.7927	0.8455	-4.6358
C	1.0926	-1.7807	-2.2585
*