! UKS B3LYP ma-def2-SVP OPT NumFreq
%basis

end 

%scf
  maxiter 200
end

%pal 
	nprocs 16
end
* xyz 0 1
Ni	-0.0181	-0.0838	0.0053
H	-2.9687	1.2393	-3.9141
H	-0.6908	1.2553	-4.8812
H	1.3806	1.4409	-4.9530
H	2.8223	1.3880	-4.2736
H	3.0235	-0.9171	-4.8296
H	-1.2119	2.3673	5.9298
H	3.3687	-0.5829	-7.1344
H	2.4517	0.7282	-7.1017
H	3.8530	0.7122	-6.3291
H	1.4478	-1.9665	-6.2231
H	-4.9774	0.6078	0.8103
H	0.7232	-1.4995	-4.8754
C	0.8933	-1.1358	4.0098
H	0.5324	-0.6529	-6.2195
H	-3.9443	0.8351	-1.5474
N	1.7681	-0.1732	-0.7738
N	0.6661	-0.5844	1.7719
N	-0.7055	0.4163	-1.7633
N	-1.7968	0.0508	0.7920
H	0.6711	-1.2993	4.9185
C	-1.9875	-0.6234	4.5415
C	-2.2638	0.7202	5.2496
C	-0.9884	1.5248	5.4834
C	-2.9938	0.4485	6.5598
H	-4.1007	0.0425	3.0536
C	1.3623	0.5318	-3.1134
C	2.1750	0.1227	-2.0698
C	3.5924	-0.0724	-2.1988
C	4.0526	-0.5030	-1.0101
C	2.9202	-0.5492	-0.1285
C	-2.0179	0.6679	-2.0800
C	3.0253	-0.9056	1.1937
C	-2.1597	1.0360	-3.4608
C	1.9693	-0.9079	2.0756
C	-0.9213	1.0368	-3.9854
C	2.1124	-1.2506	3.4570
C	-0.0090	0.6468	-2.9438
C	-0.0133	-0.7214	2.9755
H	-2.8406	-1.1186	4.4585
H	-1.3833	-1.1629	5.1114
H	-2.8685	1.2602	4.6636
H	-0.3754	1.0083	6.0461
H	-0.5597	1.7149	4.6233
H	-3.2638	1.2983	6.9654
C	2.0024	0.8619	-4.4454
H	-3.7882	-0.0975	6.3844
C	2.3784	-0.3435	-5.3345
H	-2.3970	-0.0300	7.1727
C	3.0752	0.1748	-6.5865
C	-1.3669	-0.4955	3.1643
C	1.1613	-1.1915	-5.6957
C	-2.1847	-0.1269	2.1114
H	4.1105	0.0757	-2.9815
C	-3.5978	0.0999	2.2496
H	4.9496	-0.7316	-0.7967
C	-4.0754	0.4077	1.0333
H	3.8792	-1.1666	1.5195
C	-2.9580	0.3748	0.1385
H	2.9132	-1.5094	3.8973
C	-3.0779	0.6488	-1.2049
*