! UKS B3LYP ma-def2-SVP OPT NumFreq
%basis

end 

%scf
  maxiter 200
end

%pal 
	nprocs 16
end
* xyz 0 1
H	-5.7609	-0.1677	-0.0426
C	-3.8058	-2.6997	1.0173
C	-4.8146	-1.5523	1.1571
C	-6.1008	-2.0727	1.7916
C	-5.0854	-0.8668	-0.1679
H	3.2813	3.3956	0.0316
H	3.0136	2.5110	2.3225
H	-0.6914	-0.6960	4.3855
C	2.0635	1.7455	-0.6026
C	2.7826	2.6275	0.2847
H	-1.6049	-4.4370	-3.2057
H	0.5906	-3.1304	-3.9868
C	2.6170	2.1615	1.5345
H	2.0455	-1.2627	-5.2226
C	1.7278	1.0395	1.4549
C	1.1391	0.4139	2.5486
H	2.6730	1.0664	-4.6757
C	0.0496	-0.4340	2.3936
H	1.4150	0.0596	4.5578
C	-0.8295	-0.8354	3.4558
H	2.5221	1.0359	3.9405
H	-0.1917	1.8255	4.4319
H	0.9356	2.7983	3.8500
H	0.6944	3.2915	6.1025
H	2.1305	2.6151	5.9128
C	-1.5600	-3.7840	-2.5186
C	-0.5382	-2.8009	-2.3530
C	0.4176	-2.4984	-3.2995
C	1.1309	-1.3242	-3.2926
H	2.0306	4.6332	-1.4650
C	1.8562	-0.8035	-4.4138
C	2.2181	0.4567	-4.1068
H	-0.1175	4.9465	-2.4058
C	1.7866	0.7093	-2.7542
C	2.1423	1.8136	-1.9901
C	1.8569	4.3266	-2.4006
C	1.5557	0.8214	3.9408
H	3.3076	5.5121	-3.3035
C	0.7757	2.0336	4.4563
C	2.3333	5.4284	-3.3600
C	1.1557	2.4443	5.8802
H	2.0770	5.1965	-4.2772
Ni	0.3267	-0.6372	-0.5395
H	3.6079	3.2158	-2.3240
H	2.7384	2.9047	-3.6289
H	1.9176	6.2814	-3.1121
H	0.0566	3.4386	-1.8973
C	2.6868	3.0610	-2.6521
H	0.1672	3.7746	-3.4585
H	-2.6589	-1.7775	3.3369
H	0.9801	1.7780	7.8186
H	-3.2530	-4.0987	-1.4004
H	-0.1423	1.1762	6.8482
H	1.3530	0.6094	6.7884
C	0.3570	4.1015	-2.5547
N	1.4183	0.7724	0.1298
C	-1.8910	-1.4483	2.8846
N	-0.4535	-0.8781	1.1830
C	-1.6482	-1.5100	1.4759
N	-0.7575	-2.0647	-1.2072
C	-2.4362	-2.2302	0.5695
N	1.1151	-0.4043	-2.2686
C	-1.9352	-2.5678	-0.6725
C	-2.4434	-3.6164	-1.5224
C	0.8057	1.4115	6.9262
H	-4.1520	-3.3555	0.3609
H	-3.7190	-3.1609	1.8880
H	-4.4210	-0.8736	1.7768
H	-5.8956	-2.4822	2.6567
H	-6.7249	-1.3284	1.9229
H	-6.5077	-2.7413	1.2022
H	-4.2570	-0.4641	-0.5023
H	-5.4132	-1.5252	-0.8156
*