! UKS B3LYP ma-def2-SVP OPT NumFreq
%basis

end 

%scf
  maxiter 200
end

%pal 
	nprocs 16
end
* xyz 0 1
H	2.6681	-2.5400	-3.5721
H	3.6499	-3.1903	1.5795
H	3.7238	-6.5934	-0.7595
H	2.2511	-4.8631	-0.4101
H	0.0034	-2.6974	4.7065
C	2.9506	-2.5802	1.6436
Mn	0.0501	0.0415	-0.0331
H	1.1048	-1.1774	-4.8659
C	3.4497	-3.3843	-1.0872
H	2.6905	-2.3010	3.6457
C	3.9736	-5.7248	-0.9774
C	3.0912	-4.6885	-0.7677
H	-2.4016	2.7852	3.4860
H	-2.8830	3.9077	-1.6387
H	-2.2688	2.7324	-3.6955
H	-1.3498	5.1279	1.6755
H	-2.7004	6.8880	2.3285
H	-4.9894	6.7203	2.1430
H	-5.9315	4.7947	1.3047
H	-4.5897	3.0403	0.6256
H	-0.2401	2.4670	-5.2557
H	-0.9771	2.5152	-7.4356
H	-2.0646	0.6954	-8.3377
H	-2.4426	-1.1831	-7.0417
H	-1.7774	-1.2130	-4.8363
C	0.4442	-0.3831	-3.0103
C	1.1952	-1.1806	-3.9403
C	2.0538	-1.9315	-3.2292
C	1.8520	-1.6249	-1.8514
C	2.4906	-2.2672	-0.7916
C	2.2396	-1.9885	0.5507
C	2.4215	-2.0931	2.7802
C	1.3707	-1.1978	2.4148
C	0.5827	-0.5005	3.3266
C	-0.3269	0.4835	2.9580
C	-1.1434	1.2273	3.8672
C	-1.8095	2.1513	3.1516
C	-1.4403	1.9792	1.7769
C	-1.9412	2.7414	0.7262
C	-1.7108	2.4679	-0.6114
C	-2.3364	3.1575	-1.7027
C	-1.9872	2.5195	-2.8344
C	-1.1031	1.4546	-2.4740
C	-0.5088	0.5674	-3.3744
H	0.0904	-3.1213	6.9784
C	-2.8263	3.8956	1.0911
C	-2.2733	5.0544	1.5968
C	-3.0832	6.1114	1.9898
C	-4.4471	6.0126	1.8791
C	-5.0068	4.8648	1.3766
C	-4.2016	3.8101	0.9751
C	-0.9293	0.6193	-4.8035
C	-0.6932	1.7340	-5.6054
C	-1.1269	1.7604	-6.9144
C	-1.7797	0.6747	-7.4521
C	-2.0114	-0.4444	-6.6772
C	-1.6016	-0.4645	-5.3603
N	0.8742	-0.6561	-1.7271
N	1.2849	-1.1225	1.0409
N	-0.5404	0.9389	1.6688
N	-0.9327	1.4391	-1.1050
Cl	-1.8356	-1.4970	-0.1124
H	-1.2028	1.0963	4.7862
H	0.9110	-1.5393	8.4151
H	1.6963	0.4633	7.6061
H	6.4203	-4.0382	-2.2138
H	1.5533	0.9447	5.3440
H	5.8217	-6.1866	-1.6346
C	0.7336	-0.8155	4.7802
C	0.3230	-2.0437	5.2853
C	0.3863	-2.3045	6.6478
C	0.8804	-1.3646	7.5026
C	4.6986	-3.1524	-1.6457
C	5.5816	-4.2025	-1.8470
C	1.3346	-0.1629	7.0206
C	5.2238	-5.4847	-1.5073
C	1.2559	0.1232	5.6628
H	4.9450	-2.2884	-1.8864
*