! UKS B3LYP ma-def2-SVP OPT NumFreq
%basis

end 

%scf
  maxiter 200
end

%pal 
	nprocs 16
end
* xyz 0 1
H	-1.0226	-4.4708	-2.3798
H	-3.7227	-3.0886	2.0138
H	-3.5011	-1.2758	3.6640
C	-1.9619	-0.4989	2.4207
C	-1.4734	0.6054	3.1419
H	-1.4420	-5.5918	0.0957
H	-2.8456	-7.4001	-0.2452
H	-5.8631	-4.9165	-1.1045
H	-4.4571	-3.1186	-0.7424
H	-5.3179	-9.8387	-1.7249
H	-6.2465	-11.8376	-2.4192
H	-8.5172	-12.0852	-2.4847
H	-9.8898	-10.3819	-1.8108
H	-8.9824	-8.3800	-1.0687
Zn	-0.1165	0.0146	0.0214
H	3.8102	2.8285	-1.7467
H	3.4159	1.1658	-3.5061
H	-0.1389	2.7775	4.3733
H	1.7150	3.7319	3.0787
H	4.1414	2.5659	2.3356
H	5.7706	4.1461	2.8013
H	4.3445	6.4902	-0.1162
H	2.6859	4.9175	-0.5565
H	7.1900	7.9894	3.2925
H	8.7150	9.5501	4.0798
C	-2.1421	0.9102	4.4543
H	10.6303	9.9702	2.8923
H	11.0839	8.8102	0.9483
C	-0.6246	-3.6455	-2.2218
H	9.5977	7.1895	0.2007
C	-3.3869	1.4884	4.4986
C	-1.9025	-2.9665	-0.1503
C	-0.9097	-2.7520	-1.1212
C	-2.1489	-2.1150	0.9411
H	0.8275	-0.1368	-5.2988
C	-3.1263	-2.3749	1.9788
H	1.8350	-0.5120	-7.3623
C	-3.0041	-1.3759	2.8853
C	-1.6765	1.1107	-2.3774
C	-2.6672	1.7383	-3.0854
C	-3.6103	2.4781	-2.3950
C	-3.5110	2.5737	-1.0173
C	-2.4815	1.9076	-0.3948
C	-4.7030	3.1050	-3.0989
N	-1.4698	-0.9640	1.2280
N	-1.5843	1.1820	-1.0490
N	-5.5690	3.5645	-3.6770
C	2.2728	1.8312	-0.6503
C	3.1926	2.1340	-1.7235
C	-2.7914	-4.1576	-0.3159
C	2.9800	1.2146	-2.6859
H	0.7043	-3.3933	-3.7585
C	-2.3269	-5.4477	-0.1526
C	1.5585	-0.8531	-2.8527
C	1.9566	0.3202	-2.2098
C	-3.1681	-6.5342	-0.3574
C	-4.4715	-6.3331	-0.7244
C	-4.9735	-5.0545	-0.8702
C	-4.1228	-3.9830	-0.6557
C	-6.5223	-7.6012	-0.8230
C	-7.0489	-8.9068	-1.3223
C	-6.2419	-9.9422	-1.7327
C	-6.7969	-11.1368	-2.1559
C	-8.1484	-11.2853	-2.1873
C	-8.9670	-10.2694	-1.7881
C	-8.4249	-9.0703	-1.3459
C	-0.3852	1.4017	2.7610
C	0.1584	2.4919	3.5401
C	1.1760	3.0163	2.8275
C	1.2733	2.2592	1.5982
C	2.2003	2.5248	0.5709
C	3.2396	3.5753	0.8404
H	4.7190	-2.6354	-5.5708
H	3.7394	-2.2062	-3.5120
C	4.1728	3.3550	1.8442
C	5.1516	4.2953	2.1254
H	3.6097	-2.2888	-10.3182
C	5.1877	5.4462	1.3894
H	4.2215	-2.7420	-12.5097
C	4.2931	5.7046	0.3783
H	6.4416	-2.7615	-13.1105
C	3.3085	4.7569	0.1161
H	8.0767	-2.2918	-11.5570
C	7.3297	6.4051	1.1313
H	7.4894	-1.8071	-9.3663
C	8.2532	7.4311	1.6803
C	7.9803	8.1424	2.8283
C	8.8864	9.0848	3.2921
C	10.0302	9.3295	2.5877
C	10.3054	8.6331	1.4259
C	9.4134	7.6712	0.9757
C	2.1814	-1.1321	-4.1894
C	1.6140	-0.6305	-5.3478
C	2.2134	-0.8571	-6.5863
H	-4.8616	2.1502	5.7328
H	-1.7555	0.5310	7.6534
H	-0.7255	0.1033	5.6243
H	-5.6092	1.0877	9.8098
H	-6.9608	1.3534	11.6717
H	-6.5808	3.0581	13.1364
H	-4.8609	4.5153	12.7714
H	-3.5400	4.3322	10.8551
O	-5.1930	-7.5050	-1.0428
O	-7.1799	-6.7509	-0.2911
C	0.6524	-1.7987	-2.3440
C	0.3283	-3.0546	-2.9774
N	1.5246	0.7349	-0.9797
N	0.3135	1.2845	1.5848
C	3.3673	-1.5946	-6.6464
C	3.9454	-2.1222	-5.5145
C	3.3471	-1.8716	-4.2867
C	5.1717	-1.6906	-8.2071
O	6.1375	6.4327	1.7484
C	5.4879	-2.0066	-9.6248
O	7.6026	5.6361	0.2535
C	4.5059	-2.2858	-10.5631
C	4.8746	-2.5604	-11.8723
C	6.2031	-2.5679	-12.2340
C	7.1816	-2.2888	-11.3052
C	6.8316	-2.0014	-9.9949
C	-4.0215	1.7525	5.7117
C	-3.3714	1.4074	6.8779
C	-2.1663	0.7861	6.8584
C	-1.5505	0.5340	5.6412
C	-3.5942	2.5824	8.9172
C	-4.4427	2.6785	10.1372
C	-5.4568	1.7961	10.3927
C	-6.2645	1.9506	11.5174
C	-6.0404	2.9606	12.3866
C	-5.0239	3.8325	12.1593
C	-4.2176	3.7169	11.0174
N	-0.0955	-1.6502	-1.2060
H	-3.8152	1.7075	3.7021
O	3.8508	-1.8779	-7.9386
O	5.9638	-1.3091	-7.3997
H	-1.0411	0.6150	-2.8430
H	-2.7045	1.6685	-4.0122
H	-4.1218	3.0746	-0.5260
H	-2.4114	1.9686	0.5296
O	-4.0515	1.6062	8.0914
O	-2.6404	3.2529	8.6712
*