! UKS B3LYP ma-def2-SVP OPT NumFreq
%basis

end 

%scf
  maxiter 200
end

%pal 
	nprocs 16
end
* xyz 0 1
C	-0.2086	2.9965	-9.3118
C	-0.3290	3.2105	-10.7762
C	2.8220	-6.6354	-0.6697
C	0.1721	2.3270	-11.7083
C	1.8762	-7.4906	-1.1658
C	0.6140	-7.0591	-1.5039
C	0.0144	2.6160	-13.0597
C	-0.6264	3.7488	-13.4644
C	1.8094	-9.7359	-0.4886
C	-1.1542	4.6170	-12.5282
C	2.2252	-11.1191	-0.8471
C	-0.9976	4.3580	-11.1844
C	1.8249	-12.1534	-0.0024
C	2.1918	-13.4489	-0.2841
C	2.9387	-13.7367	-1.4015
C	3.3515	-12.7196	-2.2422
C	2.9936	-11.4028	-1.9657
H	-1.6634	13.5462	-0.1751
H	-2.6754	14.5889	1.6333
H	-3.2736	13.3798	3.4820
O	2.2348	-8.8362	-1.4042
O	1.1793	-9.4313	0.4685
O	0.0718	1.7030	-9.0127
O	-0.3442	3.8409	-8.4813
Zn	-0.1875	-0.1088	-0.0677
H	-2.4081	-0.9582	0.6132
H	-5.8570	-0.0587	-1.0006
H	0.8540	-3.9701	-3.3780
H	0.4091	-2.0202	-4.8501
H	0.2058	3.2105	-4.0341
H	0.0298	4.6826	-2.0487
H	-0.7920	3.8198	3.2090
H	-0.3558	1.8757	4.6813
H	1.2147	-3.1654	3.8736
H	1.4455	-4.6259	1.8872
H	2.1173	0.8834	-5.1728
H	-1.8960	0.5584	-5.2219
H	-2.1461	4.9089	-0.7439
H	-2.4726	7.2167	-0.6141
C	-2.4943	13.6572	1.6675
H	0.4843	7.4798	2.1399
H	0.8357	5.1759	1.9769
H	-1.1771	11.2384	-0.1091
H	-2.7474	11.1378	3.5945
H	2.1220	0.4810	5.0817
H	-0.8207	-2.4091	7.2879
H	-1.0277	-2.0512	4.9864
H	0.2415	-1.0569	11.2660
H	0.0737	-1.5076	13.5596
H	2.0206	-4.9993	13.0401
H	2.0916	1.4830	-7.4447
H	2.1869	-4.5698	10.7545
H	3.1495	-4.6898	-0.1732
H	-0.5867	-5.4132	-1.5375
H	-2.8134	1.0923	1.1807
H	-2.8050	1.4579	-0.3747
H	-5.0319	1.3999	0.3904
H	-4.8373	-0.1032	0.9203
H	-4.6151	-1.8326	-0.5193
H	-4.6368	-1.5947	-2.1069
H	-2.4933	-0.5423	-2.0214
H	-2.3707	-1.9873	-1.3414
H	2.3851	0.0612	7.3801
C	0.6117	-2.6019	-1.7343
C	0.6768	-3.0791	-3.0978
C	0.4382	-2.0167	-3.8997
C	0.2380	-0.8766	-3.0407
C	0.1062	0.4435	-3.4822
C	0.0313	1.5736	-2.6582
C	0.1049	2.9312	-3.1323
C	0.0026	3.7326	-2.0508
C	-0.1558	2.8768	-0.8954
C	-0.3557	3.3364	0.4275
C	-0.3175	2.5120	1.5725
C	-0.5353	2.9491	2.9302
C	-0.3065	1.8864	3.7321
C	0.0281	0.7696	2.8817
C	0.3652	-0.5174	3.3248
C	0.6211	-1.6250	2.5022
C	1.0531	-2.9190	2.9716
C	1.1844	-3.7127	1.8885
C	0.8565	-2.9168	0.7315
C	0.8724	-3.3840	-0.5953
C	0.1095	0.7058	-4.9657
C	1.2907	0.9522	-5.6349
C	1.2788	1.3033	-6.9853
C	0.0813	1.3848	-7.6364
C	-1.0997	1.1045	-7.0127
C	-1.0809	0.7598	-5.6660
C	-0.6084	4.7989	0.5964
C	-1.6012	5.4283	-0.1636
C	-1.8040	6.7977	-0.0851
C	-1.0191	7.5425	0.7731
C	-0.0415	6.9560	1.5488
C	0.1597	5.5860	1.4501
C	-1.6431	9.5272	1.8921
C	-1.9229	10.9715	1.7455
C	-1.5944	11.6673	0.6287
C	-1.8867	13.0374	0.5960
C	-2.8318	12.9566	2.7554
C	-2.5336	11.6278	2.8098
C	0.5151	-0.7340	4.8027
C	1.5272	-0.1123	5.5233
C	1.6814	-0.3504	6.8930
C	0.7929	-1.1942	7.5228
C	-0.2200	-1.8291	6.8371
C	-0.3442	-1.6041	5.4722
C	1.2825	-2.6116	9.3196
C	1.2154	-2.7820	10.7932
C	0.5963	-1.8628	11.6218
C	0.4983	-2.1315	12.9806
C	1.0172	-3.3004	13.4896
C	1.6520	-4.2029	12.6752
C	1.7509	-3.9467	11.3235
C	1.2205	-4.8265	-0.8097
C	2.4949	-5.2945	-0.5021
H	3.6882	-6.9530	-0.4441
H	-0.0235	-7.6669	-1.8599
H	1.3004	-11.9632	0.7656
C	0.2855	-5.7195	-1.3170
H	1.9267	-14.1511	0.2982
H	3.1723	-14.6366	-1.5963
H	3.8787	-12.9189	-3.0067
H	3.2748	-10.7020	-2.5407
H	-1.9206	1.1445	-7.4904
H	0.6176	1.5353	-11.4328
C	-3.0561	0.7599	0.2805
H	0.3583	2.0150	-13.7099
C	-4.5639	0.5448	0.2217
H	-0.7111	3.9417	-14.3907
C	-4.3314	-1.2194	-1.2433
H	-1.6255	5.3925	-12.8110
C	-2.7756	-1.0878	-1.2454
H	-1.3460	4.9612	-10.5379
N	0.3332	-1.2637	-1.7246
N	-0.1004	1.5618	-1.2867
N	-0.0122	1.1722	1.5662
N	0.5234	-1.6457	1.1307
N	-2.2842	-0.4617	-0.0026
N	-4.9132	0.0535	-1.0448
O	-1.2049	8.9430	0.7579
O	-1.8166	8.9132	2.8920
O	0.9054	-1.3728	8.9183
O	1.6285	-3.4645	8.5564
H	0.9338	-3.4846	14.4182
*