! UKS B3LYP ma-def2-SVP OPT NumFreq
%basis

end 

%scf
  maxiter 200
end

%pal 
	nprocs 16
end
* xyz 0 1
Ni	0.0402	-0.1046	-0.0643
H	4.4147	-3.3126	1.3986
H	5.5654	-2.6728	0.4333
H	6.2836	-2.6444	2.6898
H	4.9761	-1.7571	3.1003
H	6.1276	-1.1158	2.1353
H	5.4487	0.1191	-1.7667
H	-5.9708	-0.9040	1.2531
H	6.1127	-0.9457	-0.7219
H	7.0986	1.1899	-0.4473
H	5.6319	1.8342	-0.1342
H	6.2952	0.7679	0.9102
H	2.3719	5.4792	-1.1875
C	-3.8581	1.2899	0.0833
C	-4.0853	0.0520	-0.4254
H	3.3588	4.2428	-1.5883
H	2.8427	5.5344	-3.5146
H	1.2504	5.2630	-3.2741
H	2.2366	4.0251	-3.6771
H	-1.1918	5.4225	-0.3501
H	0.1359	5.9415	-1.1454
H	-0.0267	7.0243	0.9658
H	-0.0146	5.5747	1.7160
H	1.3146	6.0937	0.9207
C	-2.3467	3.7766	1.0015
C	-2.8512	4.6798	1.6135
H	-3.2533	-4.7220	-0.2224
H	-2.3248	-5.7644	0.6254
H	-0.0358	-6.1552	1.0243
H	1.2043	-5.3469	1.7130
H	-1.4048	-5.6541	2.9042
H	7.1037	0.9513	-3.4923
H	6.6281	-0.8264	-5.0245
H	5.6292	0.1803	-5.8349
H	5.2836	-0.2522	-4.2983
C	-4.9407	2.2652	0.4973
H	8.5808	0.4964	-5.3108
C	-5.4397	-0.5416	-0.6749
H	7.8380	1.6717	-6.1687
H	8.6599	2.0475	-4.8078
H	7.4833	4.3189	-4.3298
H	8.1443	4.5680	-2.0377
H	8.1981	3.0080	-2.5163
H	6.9498	3.5404	-1.6071
H	6.6436	6.1518	-3.0294
H	5.6078	5.7283	-4.2158
H	5.3189	5.2674	-2.6764
H	4.3922	4.1429	-5.4651
H	5.1488	3.8178	-7.7334
H	6.1936	2.6873	-7.1891
H	6.3652	4.2443	-6.7324
H	3.1718	2.7350	-6.9349
H	3.9603	1.4480	-6.3125
H	2.9715	2.3368	-5.3654
H	1.3750	-5.7227	5.5766
C	-5.5099	5.9654	2.1326
H	-0.0237	-4.3014	6.8873
C	-5.8030	6.2637	0.6739
H	0.3809	-3.6317	5.4537
C	-6.3873	6.8394	3.0397
H	-1.8255	7.4136	2.4932
C	-3.4957	5.5165	4.4296
H	-2.3512	8.9930	0.8019
C	-4.1381	4.1683	4.7494
H	-3.8033	8.2696	0.6134
C	-2.0316	5.5299	4.8728
H	-2.4312	7.4523	0.2699
C	-5.8232	-2.5997	-4.7769
H	4.6890	-6.2730	5.6186
H	-2.7186	9.5731	3.1032
H	-4.2023	8.8975	3.2054
C	-6.8201	-2.9919	-5.8539
H	2.7970	-7.3155	4.6212
C	-6.9164	-4.5773	-2.6219
H	3.1803	-6.6608	3.1747
H	-3.0238	8.4381	4.2377
H	6.1388	-6.3893	3.7493
C	-7.8574	-3.4155	-2.2609
H	6.1547	-4.9054	4.4266
H	4.9989	-2.8846	5.1855
H	5.4524	-2.6549	7.5515
H	-6.0771	7.7879	2.9896
H	4.2108	-3.6720	7.8548
H	5.5332	-4.2104	7.0612
H	4.1436	-1.0457	6.4243
H	2.7485	-1.8674	6.6271
H	3.2197	-1.4155	5.1309
H	-4.0779	-2.6012	-5.9199
C	-5.4569	2.1474	1.7824
H	-4.0287	-1.5393	-4.6805
C	-5.9131	-1.4215	0.3992
H	-5.9832	-6.1507	-1.6544
H	-5.9589	-4.7607	-0.7978
H	-4.3877	-6.1030	-3.5839
H	-5.0087	-7.0679	-5.6947
H	-6.3038	-6.6071	-4.8140
H	-5.7940	-5.6824	-6.0605
H	-2.9193	-6.0687	-5.4246
C	4.3620	-5.9255	4.7413
H	-3.4325	-4.5564	-5.7645
H	-2.6438	-4.8577	-4.3651
C	5.5994	-5.5646	3.9209
H	5.3180	-5.1634	3.0493
H	1.1334	-3.1515	6.8225
H	1.3487	-5.8793	7.9891
H	2.7634	-6.3938	7.3551
H	-2.6302	-6.5683	-1.6047
H	-1.9828	-5.1917	-2.1953
H	-1.0520	-6.2327	-1.3471
C	2.4598	-1.5138	0.7797
C	3.8912	-1.4956	0.5986
H	2.6652	-4.9129	8.0330
C	4.1644	-0.4794	-0.2837
Si	-3.6828	5.9979	2.6168
C	2.9078	0.1873	-0.5601
C	2.7091	1.4122	-1.2160
C	1.5589	2.2059	-0.9795
C	1.4563	3.6403	-1.0923
C	0.2853	4.0047	-0.4853
C	-0.3699	2.7805	-0.0832
C	-1.6985	2.6484	0.3731
C	-2.4177	1.4557	0.1846
C	-2.7934	-0.5932	-0.5381
C	-2.5664	-1.9656	-0.7867
C	-1.4447	-2.6115	-0.2280
C	-1.3645	-3.9989	0.1686
C	-0.2510	-4.1178	0.9567
C	0.3997	-2.8192	0.9503
C	1.7017	-2.5299	1.3965
C	3.7146	1.9113	-2.1124
C	4.5205	2.2827	-2.9307
C	-3.4942	-2.6991	-1.5897
C	-4.2217	-3.2738	-2.3777
C	1.7835	-5.0023	6.1387
C	2.2584	-3.2781	2.4840
C	0.7296	-3.9300	6.3428
C	2.1736	-5.5989	7.4973
H	-5.7009	2.1564	-0.1428
C	2.6518	-3.7943	3.5118
H	-4.5621	3.1869	0.4096
C	3.5499	-7.0217	4.0305
C	4.8948	-2.4714	1.1477
H	-5.3995	-1.0725	-1.5210
C	5.6343	-1.9524	2.3741
H	-6.0952	0.2056	-0.7813
C	5.5312	-0.1374	-0.8036
H	-4.0116	3.9595	5.7198
C	6.1958	1.0125	-0.0534
C	2.4363	4.6157	-1.6857
C	2.1692	4.8827	-3.1657
C	4.2825	-3.0412	5.8655
C	-0.1915	5.4194	-0.3581
C	0.3136	6.0862	0.9216
C	3.5354	-1.7302	6.0252
C	4.9250	-3.4274	7.1985
C	-2.3360	-5.1082	-0.1306
C	0.2100	-5.3838	1.6118
C	-0.4106	-5.6049	2.9910
C	6.8097	1.1586	-4.4258
C	6.0199	-0.0375	-4.9394
C	8.0818	1.3615	-5.2496
C	6.8290	4.1474	-3.5947
C	7.5962	3.7850	-2.3304
C	6.0304	5.4360	-3.3583
C	4.7987	3.2719	-5.7435
C	5.7058	3.5285	-6.9559
C	3.6241	2.3696	-6.1224
C	-2.7858	7.6283	2.3177
C	-2.8487	8.1294	0.8769
C	-3.2211	8.7305	3.3035
C	-4.6027	-1.9256	-5.4025
C	-6.5138	-5.3454	-1.3874
H	4.1434	-7.8032	3.8342
C	-4.5824	-5.5139	-4.3678
H	-5.7575	5.0064	2.2732
C	-5.5011	-6.2849	-5.3163
H	-6.7897	6.2234	0.5153
C	-3.2891	-5.2260	-5.0351
H	-5.3454	5.5866	0.0967
H	-5.4653	7.1779	0.4455
H	-7.3390	6.7827	2.7386
H	-6.3177	6.5142	3.9840
H	-3.9884	6.2130	4.9521
H	-5.1144	4.2070	4.5412
H	-3.7070	3.4539	4.1964
H	-1.9723	5.2704	5.8363
H	-1.5088	4.8812	4.3192
H	-1.6546	6.4486	4.7510
C	-1.9686	-5.8390	-1.4334
N	1.8817	-0.4841	0.0711
H	-6.2654	-1.9226	-4.1885
N	0.4267	1.7079	-0.3806
H	-4.9037	-1.1948	-6.0163
N	-1.8024	0.2709	-0.1622
N	-0.3533	-1.9235	0.2310
H	-6.9999	-2.2045	-6.4443
H	-7.6733	-3.2887	-5.4253
H	-6.4440	-3.7391	-6.4001
Si	3.2701	-4.4384	5.1242
H	-7.4292	-5.1858	-3.2281
H	-7.3331	-5.6362	-0.8944
H	-8.6434	-3.7690	-1.7548
H	-8.1743	-2.9711	-3.0983
H	-7.3670	-2.7533	-1.6956
H	-0.0661	-6.4609	3.3771
H	-0.1647	-4.8457	3.5929
H	-6.1580	2.8469	1.9253
H	-5.8619	1.2407	1.8976
H	-4.7216	2.2712	2.4501
H	-6.8179	-1.7779	0.1639
H	-5.2736	-2.1821	0.5116
Si	5.7595	2.7189	-4.2226
Si	-5.3948	-4.0098	-3.5858
*