! UKS B3LYP ma-def2-SVP OPT NumFreq
%basis

end 

%scf
  maxiter 200
end

%pal 
	nprocs 16
end
* xyz 0 1
Ni	-0.2371	-0.2891	-0.1687
C	-2.1503	-1.7289	-1.9651
H	2.2682	-0.5287	4.2438
H	-2.5468	2.8515	-6.9269
C	0.0630	-1.4283	5.4705
C	-0.5371	3.7006	-8.5057
N	0.5397	1.2546	-1.0694
C	1.9909	-0.1677	3.4103
H	-2.5170	1.7717	-4.8696
C	1.7820	1.0746	1.5670
N	-1.2418	-0.7090	-1.7872
H	-3.1987	-2.4383	-3.6851
N	-3.6943	-3.4080	-1.3846
N	-3.7728	-4.5745	-0.9812
C	0.1101	-1.9729	6.7438
N	-4.0254	-5.6519	-0.7223
H	-2.0036	-3.5249	3.3309
C	0.2136	-3.3485	6.9399
H	0.7425	3.5701	-3.3129
C	0.2233	-3.9410	8.3357
C	2.5662	3.9472	2.3633
H	0.4011	-5.0998	5.9201
N	-1.1167	-1.7534	0.7853
C	2.8452	3.2752	1.1769
N	0.8397	0.0776	1.4122
H	-2.0032	-0.6628	-4.9283
H	0.3858	-4.1920	3.7767
H	1.5220	1.6273	-5.0250
H	-3.3875	-3.9948	1.3325
H	1.4769	2.7070	-7.0750
H	-0.0574	4.5467	-8.3842
H	-0.0930	3.1712	-9.2006
H	-1.4605	3.8853	-8.7762
C	3.9726	3.6450	0.4477
H	3.2102	5.4006	3.6417
H	-0.0272	-0.4886	5.3650
H	5.1294	5.9600	2.4367
C	3.4106	4.9497	2.8304
C	-1.7140	2.6183	-6.5354
H	0.0705	-1.3964	7.4979
C	0.2766	1.7158	-2.3480
C	4.8153	4.6495	0.9142
C	2.5235	0.8941	2.7838
C	-0.4906	1.6204	-4.7007
C	-1.6970	1.9741	-5.3051
H	1.0934	-3.7748	8.7554
C	1.4411	3.3716	-1.3860
H	-0.4829	-3.5237	8.8728
C	-0.9420	-2.1328	2.1023
C	1.9541	2.1653	0.7255
C	-2.5781	-1.8148	-3.3249
C	0.0533	-1.6701	2.9592
C	-1.9112	-3.1229	2.4744
H	1.8843	4.1914	-1.2019
H	0.0657	-4.9061	8.2820
C	-0.5358	2.9274	-7.2036
C	-0.4366	1.0321	-3.3291
C	0.3162	-4.1598	5.8114
C	0.6883	1.8893	-5.3968
C	0.8144	3.0355	-2.5318
H	1.7894	3.7180	2.8610
C	1.3099	2.2530	-0.4996
C	0.2966	-3.6191	4.5287
C	-2.1685	-2.5420	0.3413
C	-2.6662	-3.3793	1.3904
C	-1.1290	-0.1343	-3.0407
C	0.1469	-2.2477	4.3367
C	-1.9370	-0.8449	-3.9984
H	4.1670	3.2091	-0.3741
C	0.9197	-0.6555	2.5800
H	5.5819	4.8974	0.4098
H	3.2509	1.4244	3.0872
C	0.6599	2.5328	-6.6228
C	-2.6197	-2.5636	-0.9638
C	4.5418	5.2889	2.1101
*