! UKS B3LYP ma-def2-SVP OPT NumFreq
%basis

end 

%scf
  maxiter 200
end

%pal 
	nprocs 16
end
* xyz 0 1
H	-2.4569	2.1749	-3.2131
H	-4.0045	3.5770	-2.3412
H	-4.2136	4.5979	-1.1302
H	-3.3228	5.7205	-3.0259
H	-3.7801	4.8936	0.9646
H	-0.7460	0.2300	5.8335
H	-3.1090	4.2514	2.2681
H	0.5810	2.0871	6.4809
H	1.4871	0.9761	5.7677
H	0.4254	-1.5093	5.6743
H	-0.8845	-3.4888	5.7518
Ni	-0.0049	0.0485	-0.3953
H	2.5688	-1.3845	-3.5209
H	-2.2975	5.8152	-1.8008
H	-2.0359	4.7711	-2.9865
H	-1.1375	5.4641	1.8897
C	-2.6851	3.2788	-0.8075
H	-1.7275	6.0438	0.5198
C	-2.4053	3.4303	0.5193
H	-2.3691	6.4850	1.9160
H	-1.2282	1.5628	5.0886
H	1.0412	2.2858	4.9621
H	1.0651	-2.5995	4.6907
H	-1.7676	-2.3154	5.1166
H	-1.1107	-3.4241	4.1695
H	3.7698	-4.9717	-0.0069
H	3.0108	-4.6668	1.3679
H	1.0555	-5.7062	0.5379
H	1.7783	-5.9741	-0.8647
H	2.2804	-6.7318	0.4520
H	4.1632	-2.8236	-2.8866
C	0.7672	1.6286	5.6352
H	4.4095	-4.0709	-1.9160
H	2.6184	-5.2327	-2.9344
C	-3.5300	4.1473	-1.6865
C	-2.7242	5.2095	-2.4432
H	2.3358	-3.9785	-3.8878
C	-2.9247	4.5771	1.3507
H	3.6915	-4.8123	-4.0461
H	1.2541	0.4056	-6.4955
H	2.3902	-0.1927	-5.5440
H	1.3200	-2.3085	-5.6040
H	0.1934	-1.7056	-6.5680
H	1.7038	-1.8303	-7.0821
H	-1.1298	1.0131	-6.4626
H	-2.2010	1.5905	-5.4215
H	-0.8558	3.4961	-5.0572
H	0.2736	2.9048	-6.0253
H	-1.1403	3.3552	-6.6255
C	-1.9194	2.1497	-1.2777
C	-1.5089	2.3283	0.8597
C	-1.0697	1.9388	2.1125
C	-0.4453	0.7599	2.4836
C	-0.2897	0.2310	3.8210
C	0.1466	-1.0561	3.6867
C	0.3586	-1.2750	2.2663
C	1.0107	-2.3436	1.6738
C	1.4966	-2.4392	0.3817
C	2.4198	-3.4303	-0.1629
O	-2.6860	2.4336	3.7306
C	2.7654	-2.9633	-1.3951
C	1.9873	-1.7774	-1.6354
C	1.9072	-1.1746	-2.8723
C	0.9152	-0.2823	-3.2124
C	0.6145	0.1187	-4.5678
C	-0.5217	0.8472	-4.5114
C	-0.8596	0.9613	-3.1025
C	-1.8239	1.8079	-2.6072
C	-1.9528	5.7470	1.4257
C	-0.4873	0.9091	5.1610
C	0.2784	-2.0172	4.8370
C	-0.9866	-2.8910	4.9819
C	2.8896	-4.7506	0.3891
C	1.9129	-5.8938	0.1029
C	3.7135	-3.5572	-2.3978
C	3.0290	-4.4774	-3.4067
C	1.4298	-0.2516	-5.7763
C	1.1357	-1.6483	-6.3052
C	-1.2348	1.5397	-5.6312
C	-0.6907	2.9508	-5.8551
N	1.3940	-3.4530	2.5724
N	-1.2014	1.5720	-0.2582
N	-0.0391	-0.1659	1.5384
N	1.2201	-1.4499	-0.5487
N	0.0166	0.2448	-2.3238
N	-1.5900	2.7038	3.2744
O	2.4629	-3.3610	3.1631
O	0.6214	-4.3926	2.6690
O	-0.8644	3.6208	3.6657
*