! UKS B3LYP ma-def2-SVP OPT NumFreq
%basis

end 

%scf
  maxiter 200
end

%pal 
	nprocs 16
end
* xyz 0 1
O	1.7765	-1.9078	-8.9249
O	-8.8006	-0.0729	-2.4191
O	0.4378	1.0692	-0.1189
C	-3.4510	4.1266	0.3202
H	1.4634	-1.6810	4.8574
C	-2.7275	5.3466	0.8056
C	6.8169	-0.7438	1.3582
C	7.4195	-1.9482	1.6283
C	5.6908	0.4011	-1.6655
C	9.4412	-3.1196	2.1344
H	4.8333	0.3238	3.3074
H	4.6042	1.8540	3.7160
H	-1.2387	0.4440	7.6040
H	-2.1814	-3.4573	7.0649
H	2.0143	3.1949	5.1237
H	2.1726	1.4528	6.8787
H	1.2316	0.1634	6.7640
H	2.3615	0.4301	5.6624
H	-1.4820	-3.4731	9.1596
H	-2.1383	-2.7899	10.4494
H	-3.0569	-3.1922	9.2022
H	-9.6728	-1.8577	-2.1576
H	-10.4731	-0.8955	-3.1550
H	-9.1341	-1.6217	-3.6459
Zn	-0.0688	-1.0423	-0.0475
H	0.0468	1.4552	-0.9333
H	-3.8086	-1.1098	-3.6139
H	-1.7396	-1.4754	-4.9090
H	3.2429	-2.7350	-3.6656
O	8.7758	-1.8950	1.8842
H	4.6004	-2.6773	-1.5853
H	0.0374	5.6661	3.6408
H	3.5500	-1.9186	3.5364
H	1.4930	5.3808	4.2414
H	-3.6844	-1.2577	3.6689
H	-4.9889	-1.0781	1.5612
H	1.3125	0.0835	-7.5251
H	1.5668	-3.9517	-7.2240
H	1.0957	-3.7824	-4.9406
H	-1.2690	3.3662	-5.2157
H	2.1577	3.0413	-3.1549
H	-1.4814	1.6490	-7.1773
H	-1.2108	0.1492	-6.6890
H	-2.3045	1.0485	-5.9432
H	2.9556	0.4229	-2.9018
H	3.0787	-0.1378	-4.3957
H	3.7421	1.2669	-4.0109
H	1.0766	-3.6713	-9.5408
H	2.1717	-3.0373	-10.5205
H	2.6247	-3.7003	-9.1362
H	4.7970	-3.8386	1.2862
H	4.4956	2.7463	-1.7828
H	3.2693	3.2362	2.0297
H	5.0942	-0.2937	-2.0129
H	3.3471	0.8976	3.4593
H	-1.7445	-3.2121	4.7852
H	1.0474	5.3673	-3.8553
H	-0.5404	5.2460	-4.0146
H	-1.5886	3.8188	3.4846
H	0.1573	4.8509	-2.6297
H	-3.0376	1.4703	3.2635
H	-3.1679	0.9252	4.7625
H	-3.4781	2.4617	4.4401
C	-1.2040	-1.2584	4.8098
C	-1.0527	-0.1387	5.6611
C	-1.3307	-0.3012	7.0223
H	-7.2090	1.5671	-1.5059
C	-1.7386	-1.5243	7.5499
H	-7.4539	-2.3694	-2.3428
C	-1.8968	-2.6199	6.7177
H	-5.2450	-2.6451	-1.6238
C	-1.6306	-2.4644	5.3601
H	-4.5488	3.8147	1.9646
C	-0.5886	1.2059	5.1619
C	0.7224	1.6464	5.4377
H	2.4287	4.3689	-0.9981
H	-6.7582	2.3141	1.7559
C	1.1316	2.8957	4.9415
H	-6.3390	0.8592	1.2375
C	0.2982	3.6981	4.2057
H	-5.5753	1.5165	2.4808
H	2.7205	4.9241	0.4742
C	-1.4618	2.0402	4.4625
H	3.8098	5.1133	-0.6829
C	1.7090	0.8531	6.2574
H	-4.3106	1.4669	-3.1800
H	-3.4888	2.8153	-3.4398
C	-2.1770	-2.8569	9.4718
H	-2.7392	1.5164	-2.8814
H	0.4641	1.7399	1.7492
H	0.1106	2.8632	0.6655
H	-0.9862	1.7714	1.0733
H	1.1334	4.9065	2.7559
C	-9.5843	-1.2037	-2.8813
C	-2.5473	-1.0848	-1.8675
C	-2.9278	-1.1786	-3.2633
C	-1.8042	-1.3773	-3.9665
C	-0.7176	-1.4165	-3.0287
C	0.6003	-1.7059	-3.3838
C	1.6354	-1.9594	-2.4687
C	2.9505	-2.4486	-2.8081
C	3.6880	-2.4236	-1.6715
C	2.8252	-1.9378	-0.6115
C	3.2162	-1.7794	0.7253
C	2.3205	-1.6213	1.8004
H	-2.5451	4.0280	-1.5012
C	2.6786	-1.7614	3.1915
C	1.5416	-1.6267	3.9123
C	0.4719	-1.3857	2.9777
C	-0.8772	-1.2229	3.3382
C	-1.9386	-1.1422	2.4291
H	-1.7614	5.1846	0.7812
C	-3.3305	-1.1802	2.7904
H	-2.9461	6.1073	0.2277
C	-4.0428	-1.0848	1.6411
H	-3.0025	5.5450	1.7250
C	-3.0874	-0.9956	0.5590
C	0.7832	5.0307	3.6635
C	-3.4395	-0.9190	-0.7943
O	-1.9617	-1.5632	8.8967
C	0.9166	-1.7619	-4.8539
C	0.9732	-0.5826	-5.6356
C	1.2660	-0.7000	-6.9907
C	1.4931	-1.9403	-7.5815
C	1.4232	-3.1024	-6.8241
C	1.1390	-2.9923	-5.4664
C	0.7431	0.7893	-5.0712
C	-0.3749	1.5585	-5.4453
C	-0.5130	2.8535	-4.9534
H	7.3429	0.0475	1.3685
C	0.4134	3.4197	-4.0909
C	1.5109	2.6658	-3.7417
H	7.0888	-3.9625	1.7651
C	1.7066	1.3739	-4.2190
C	-1.4359	1.0580	-6.3978
C	2.9820	0.6701	-3.8502
H	5.9497	1.0043	-2.3930
C	1.9233	-3.1806	-9.5829
H	6.4932	-0.0166	-1.2869
C	4.6881	-1.8277	1.0416
C	5.4510	-0.6469	1.0662
C	6.6769	-3.1228	1.5957
C	5.3135	-3.0414	1.3043
C	4.8685	0.6920	0.7354
C	4.9753	1.1893	-0.5858
H	9.4094	-3.6778	1.3296
C	4.4175	2.4202	-0.8942
H	10.3745	-2.9414	2.3724
C	3.7454	3.2007	0.0514
H	8.9985	-3.5867	2.8736
C	3.7004	2.7159	1.3614
C	4.2637	1.4990	1.7184
C	4.2617	1.1096	3.1780
C	0.2552	4.8477	-3.6053
C	-0.9973	3.2648	3.9804
C	-2.9141	1.6930	4.2102
C	-4.8784	-0.7094	-1.1544
C	-5.4639	0.5700	-1.0949
C	-6.8011	0.7092	-1.5357
C	-7.5209	-0.3513	-2.0013
C	-6.9532	-1.6228	-2.0345
C	-5.6355	-1.7792	-1.6059
C	-4.7700	1.8056	-0.6203
C	-5.0198	2.3155	0.6868
C	-4.3589	3.4697	1.1005
C	3.1215	4.5161	-0.3214
C	-3.1938	3.6042	-0.9505
C	-3.8582	2.4766	-1.4359
C	-6.0077	1.6977	1.6212
C	-3.5734	2.0292	-2.8609
C	-0.0307	1.9291	0.9243
N	-1.1954	-1.2304	-1.7524
N	1.5699	-1.7054	-1.1144
N	0.9716	-1.4012	1.6947
N	-1.8152	-1.0490	1.0635
*