! UKS B3LYP ma-def2-SVP OPT NumFreq
%basis
NewGTO Ir "ma-def2-TZVP" end
end 

%scf
  maxiter 200
end

%pal 
	nprocs 16
end
* xyz 0 1
H	4.3712	4.3334	-4.7646
H	-0.0605	1.2090	4.9634
H	-4.6956	-2.0255	0.4169
H	-6.8269	-2.3681	6.3610
H	-0.6851	2.8461	-0.5085
H	1.8323	0.6186	-4.7624
H	-0.3047	-0.4934	-5.1132
H	-5.2645	-1.7174	-7.8516
H	-5.4734	-3.1651	-7.2875
H	-4.2368	-2.1391	-1.9575
H	-5.3246	-0.0304	2.1144
H	-2.2111	0.1194	4.6094
H	-4.4696	-3.2081	5.3108
H	-7.0074	-0.7809	3.4694
H	4.0351	2.5173	1.8502
H	4.4507	2.4605	-0.5408
H	-2.1271	-3.3716	-3.9766
H	-7.8670	-2.1391	5.2112
H	-3.2967	-3.9397	-5.8791
H	2.6760	0.0987	4.6313
H	-4.5309	-0.2266	-6.2593
H	-7.1448	-3.5231	5.3493
H	3.9239	0.7683	6.4454
H	-3.2933	0.3724	-4.4113
H	4.7471	4.1320	7.3199
H	-4.2255	-2.8449	-8.1798
H	5.5430	2.7841	7.2503
H	4.2429	2.8839	8.1223
H	-2.7641	-2.4886	3.9602
H	2.2195	3.9116	3.5536
H	4.7596	0.2037	-2.8496
H	6.4344	1.0386	-4.1759
H	2.6862	3.5277	-3.4343
H	6.4651	4.1836	-5.8010
H	-0.5113	-2.3973	1.5312
H	0.6264	-4.3253	2.0447
H	3.6275	-3.1874	-0.2673
H	2.4977	-1.2543	-0.7845
H	2.4773	-5.7713	1.9198
H	3.8398	-5.0207	1.7320
H	3.1733	-5.7540	0.5157
H	-2.6154	3.2093	-1.0704
H	-3.0162	1.7736	-0.5824
H	-2.2429	1.9544	-1.9346
H	6.8318	2.7170	-6.2192
H	7.5017	3.3642	-4.9558
Ir	-0.0921	0.1687	-0.0410
C	1.3656	0.6237	-2.6983
C	1.2214	0.3862	-4.1004
C	0.0507	-0.2335	-4.2943
C	-0.5590	-0.4212	-3.0029
C	-1.7944	-1.0219	-2.7806
C	-2.3815	-1.1992	-1.5429
C	-3.6771	-1.7776	-1.3118
C	-3.9348	-1.7053	-0.0106
C	-2.8198	-1.0391	0.6166
C	-2.7357	-0.7310	1.9830
C	-7.0449	-2.5746	5.4481
C	-1.6570	-0.0665	2.5720
C	-1.5651	0.2812	3.9601
C	-0.3842	0.8802	4.1548
C	0.2903	0.9215	2.8922
C	1.5518	1.4672	2.6699
C	2.1718	1.5843	1.4426
C	-4.8205	-2.4972	-7.5125
C	3.4628	2.1730	1.2036
C	-5.1395	-0.6794	2.7543
C	3.6945	2.1368	-0.1079
C	2.5613	1.5068	-0.7317
C	-6.1524	-1.1304	3.5717
C	2.4432	1.2744	-2.0951
C	-5.9355	-2.0875	4.5423
C	-2.5745	-1.4402	-3.9983
C	-2.5949	-2.7158	-4.4400
C	-3.3103	-3.0583	-5.5820
C	2.8338	1.0042	4.7721
C	-4.0313	-2.1305	-6.2781
C	3.5809	1.4070	5.8623
C	-4.0290	-0.8739	-5.8182
C	3.8217	2.7359	6.0968
C	-3.2944	-0.5141	-4.6938
C	3.2891	3.6517	5.2622
C	2.5511	3.2644	4.1332
C	-3.8542	-1.1768	2.8698
C	4.6687	3.1749	7.3132
C	-4.6490	-2.5677	4.6602
C	-3.6180	-2.1374	3.8503
C	2.3171	1.9320	3.8813
C	3.5276	1.7719	-2.9824
C	4.6642	1.0489	-3.2266
C	5.6725	1.5516	-4.0284
C	5.5760	2.7824	-4.6104
C	4.4621	3.4916	-4.3769
C	3.4435	3.0062	-3.5737
C	0.8524	-1.5951	0.3217
C	0.3289	-2.5385	1.1603
C	1.0193	-3.7090	1.4703
H	3.4140	4.5571	5.4376
C	2.2558	-3.9776	0.9598
C	2.7895	-3.0377	0.1083
C	2.1048	-1.8688	-0.2050
C	3.0052	-5.2480	1.3142
C	-2.3463	2.2883	-1.0399
N	0.2767	0.1073	-2.0325
N	-1.8864	-0.7465	-0.3294
C	6.6956	3.3091	-5.4751
N	-0.5159	0.3500	1.9293
N	1.6461	1.1866	0.2306
O	-1.1404	2.1806	-0.3634
*