! UKS B3LYP ma-def2-SVP OPT NumFreq
%basis
NewGTO Ir "ma-def2-TZVP" end
end 

%scf
  maxiter 200
end

%pal 
	nprocs 16
end
* xyz 0 1
H	-4.8799	-0.8975	-1.2535
C	-1.0789	-1.6543	3.8298
H	-4.0771	0.4911	-3.0752
C	-2.2429	-1.8272	3.1957
C	-2.1199	-1.2356	1.8940
H	0.5325	2.8247	-4.2625
H	2.7240	2.9400	-3.1873
C	-3.1187	-1.2068	0.9226
C	-2.0565	1.9931	-4.0666
H	4.6370	1.5571	1.5694
C	-2.4272	3.2953	-4.1733
H	3.7938	0.2817	3.4548
H	-0.8792	-1.9385	4.6930
C	-3.0342	3.7850	-5.3198
H	-2.9958	-2.2555	3.5363
C	-3.3088	2.9784	-6.3721
C	-2.8940	1.6838	-6.2956
H	-2.2697	3.8734	-3.4599
C	-2.2678	1.1691	-5.1619
H	-3.2570	4.6858	-5.3682
H	-3.0342	1.1249	-7.0243
C	-4.0233	3.4797	-7.6230
H	-1.9951	0.2798	-5.1415
C	4.2010	2.4252	-0.9310
C	5.3246	1.6397	-1.0217
H	-4.2500	4.4054	-7.5109
C	6.5500	2.2024	-1.1898
H	-4.8242	2.9688	-7.7606
H	-3.4452	3.3817	-8.3823
C	6.7017	3.5680	-1.3019
C	5.5627	4.3516	-1.2866
H	5.2458	0.7139	-0.9707
C	4.3374	3.7774	-1.0701
H	7.3010	1.6550	-1.2306
C	8.0711	4.2287	-1.4242
C	1.7502	-1.1415	4.5022
H	3.5825	4.3190	-1.0191
C	2.0210	-2.4744	4.6344
H	8.7549	3.5565	-1.4038
C	2.6760	-2.9450	5.7682
C	3.0620	-2.1018	6.7797
H	8.1192	4.7108	-2.2548
H	1.7656	-3.0698	3.9644
C	2.7451	-0.7842	6.6599
C	2.1113	-0.2849	5.5236
H	2.8565	-3.8535	5.8421
H	2.9583	-0.2023	7.3529
C	3.8053	-2.6165	7.9950
C	-4.3863	-1.9578	1.1926
H	1.9288	0.6255	5.4523
C	-5.6059	-1.2951	1.2548
H	3.9417	-3.5634	7.9109
C	-6.7872	-2.0019	1.3758
H	5.6261	5.2697	-1.4242
H	3.2906	-2.4360	8.7848
C	-6.7948	-3.3752	1.4573
H	4.6562	-2.1748	8.0612
C	-5.5925	-4.0071	1.4420
H	-5.6271	-0.3655	1.2153
C	-4.3998	-3.3310	1.3198
H	-7.5958	-1.5410	1.4013
H	8.1998	4.8376	-0.6930
C	-8.0932	-4.1492	1.5287
H	-5.5752	-4.9348	1.5159
C	0.5287	-1.3854	-0.7088
H	-3.5969	-3.8016	1.3248
C	0.5882	-1.5160	-2.1050
H	-7.9031	-5.0904	1.5643
C	1.0645	-2.6876	-2.7116
H	-8.6214	-3.9591	0.7516
C	1.4506	-3.7536	-1.9516
H	-8.5772	-3.8899	2.3159
H	0.3059	-0.8092	-2.6395
C	1.4026	-3.6633	-0.5758
C	0.9455	-2.4840	0.0216
H	1.1164	-2.7375	-3.6383
H	1.6734	-4.3797	-0.0484
C	2.3821	-5.9624	-1.8599
C	-1.7492	3.0994	0.7389
H	0.9205	-2.4379	0.9503
N	-1.9259	0.1533	-0.7498
H	2.6702	-6.6672	-2.4459
N	0.5702	1.4345	-1.3919
H	1.6734	-6.2831	-1.2968
N	1.6455	0.5687	1.1271
H	3.1197	-5.6762	-1.3147
N	-0.8521	-0.6915	1.7763
H	-1.7761	3.8792	1.2968
H	-2.5963	2.6499	0.7745
O	1.9096	-4.8603	-2.6398
O	-0.8137	2.2942	1.1600
H	-1.5629	3.3606	-0.1656
H	-0.3452	2.0641	0.5274
Ir	-0.1226	0.3217	0.1595
C	-3.0092	-0.5691	-0.2950
C	-4.0464	-0.4904	-1.3009
C	-3.6027	0.2683	-2.3075
C	-2.2717	0.6736	-1.9901
C	-1.4535	1.4534	-2.8051
C	-0.1263	1.7837	-2.5216
C	0.7553	2.4848	-3.4253
C	1.9577	2.5501	-2.8314
C	1.8520	1.9086	-1.5407
C	2.8700	1.8202	-0.6059
C	2.7547	1.2171	0.6375
C	3.7919	1.1710	1.6377
C	3.3271	0.4796	2.6762
C	1.9711	0.0954	2.3776
C	1.1375	-0.6229	3.2166
C	-0.1935	-0.9513	2.9496
*