! UKS B3LYP ma-def2-SVP OPT NumFreq
%basis
NewGTO Ir "ma-def2-TZVP" end
end 

%scf
  maxiter 200
end

%pal 
	nprocs 16
end
* xyz 0 1
H	-5.5153	2.9950	4.5993
H	-4.1707	2.4702	2.8033
H	2.5170	-1.0192	-0.7554
H	4.3370	-1.7936	0.3928
H	2.4340	-1.0635	3.8497
H	0.6494	-0.2288	2.6969
H	-3.1529	2.3615	-1.8270
H	-1.6458	2.7427	-1.6279
H	-2.5575	2.4716	-0.3812
H	-2.0751	0.6195	-2.1012
Ir	-0.2353	0.1265	-0.1906
H	-3.8332	-6.7876	-1.0195
C	-1.0238	2.0058	2.0933
H	-1.9886	-6.8654	2.5141
C	-0.7111	3.2956	2.6378
H	-1.1404	-4.7731	2.1215
C	0.1688	3.8794	1.8064
H	-4.1565	-8.6853	0.3247
C	0.4268	2.9762	0.7182
H	-4.2007	-8.3404	1.8540
C	1.2025	3.2419	-0.4052
H	-2.9427	-9.0531	1.2464
C	1.3845	2.3857	-1.4963
C	2.0170	2.7185	-2.7366
C	1.9057	1.6703	-3.5420
C	1.1989	0.6436	-2.8170
C	0.9410	-0.6542	-3.3278
C	0.3049	-1.6567	-2.6142
C	0.1565	-3.0190	-3.0532
C	-0.4531	-3.6981	-2.0719
C	-0.7553	-2.7801	-1.0103
C	-1.5133	-3.0659	0.1237
C	-1.9037	-2.1090	1.0763
C	-2.8490	-2.3385	2.1294
C	-2.9939	-1.1722	2.7939
C	-2.1317	-0.2073	2.1863
C	-1.9232	1.0892	2.6498
C	1.8562	4.5988	-0.4884
C	1.1000	5.7490	-0.5769
C	1.7113	6.9850	-0.7083
C	3.0895	7.1179	-0.7118
C	3.8369	5.9758	-0.5878
C	3.2256	4.7343	-0.4864
C	3.7486	8.4989	-0.8302
C	1.2519	-0.9589	-4.7649
C	0.2731	-0.9347	-5.6937
C	0.5187	-1.2863	-7.0277
C	1.7555	-1.6809	-7.4366
C	2.7220	-1.7265	-6.4890
C	2.5011	-1.3870	-5.1669
C	-2.3755	1.2274	5.1276
C	2.0152	-2.0728	-8.8801
C	-1.9886	-4.4671	0.3364
C	-3.1724	1.5630	6.2064
C	-4.3739	2.2098	6.0362
C	-5.2662	2.5413	7.2157
C	-2.7360	1.5227	3.8404
C	-4.7184	2.5400	4.7492
C	-3.9127	2.2152	3.6605
C	1.3474	-0.5415	0.8132
C	2.4941	-1.0206	0.1750
C	3.5878	-1.4917	0.8542
C	3.5595	-1.5118	2.2416
C	2.4517	-1.0461	2.9199
C	1.3809	-0.5589	2.2248
C	-2.3720	2.2152	-1.2877
N	-0.2941	1.8139	0.9393
O	4.5949	-2.1010	4.2088
N	0.9092	1.0972	-1.5784
N	-0.2482	-1.5333	-1.3541
N	-1.4832	-0.7965	1.1032
N	4.6956	-2.0325	2.9691
C	-2.8013	-5.1073	-0.5861
C	-3.2996	-6.3836	-0.3725
H	3.4747	9.0492	-0.0929
C	-3.0081	-7.0574	0.7944
C	-2.1970	-6.4293	1.7193
O	5.6798	-2.4016	2.3844
H	3.4800	8.9123	-1.6537
C	-1.6935	-5.1637	1.4857
C	-3.6353	-8.4088	1.0808
O	-2.0310	0.8906	-1.3273
H	-1.0539	3.6593	3.4207
H	0.5470	4.7223	1.9184
H	2.4305	3.5251	-2.9412
H	2.2255	1.6099	-4.4143
H	0.4339	-3.3652	-3.8705
H	-0.6475	-4.6080	-2.0788
H	-3.2819	-3.1398	2.3172
H	-3.5558	-1.0233	3.5214
H	0.1724	5.6939	-0.5504
H	1.1830	7.7447	-0.7986
H	4.7645	6.0348	-0.5733
H	3.7574	3.9734	-0.4160
H	4.7027	8.4010	-0.8192
H	-0.5856	-0.6797	-5.4417
H	-0.1775	-1.2501	-7.6448
H	3.5754	-1.9990	-6.7403
H	3.1938	-1.4474	-4.5494
H	2.9393	-2.3157	-8.9856
H	-1.5698	0.7886	5.2806
H	1.8121	-1.3320	-9.4561
H	-2.8897	1.3469	7.0668
H	1.4604	-2.8217	-9.1132
H	-3.0187	-4.6657	-1.3754
H	-6.0630	2.9762	6.9023
H	-4.7979	3.1252	7.8174
H	-5.5029	1.7321	7.6749
*