! UKS B3LYP ma-def2-SVP OPT NumFreq
%basis

end 

%scf
  maxiter 200
end

%pal 
	nprocs 16
end
* xyz 0 1
Ni	0.0940	-0.0402	-0.0004
C	0.5854	3.0011	-4.5284
C	0.3387	0.5352	-4.1009
C	-4.9816	-1.7149	1.4259
C	4.9970	5.9335	0.7984
C	-0.5081	-3.9616	-6.4910
H	-4.9536	-6.1369	3.5571
H	-4.4314	-6.4485	5.0379
C	-1.7112	-3.5165	-5.9710
H	-3.4906	-5.6694	4.0040
H	3.3493	1.2652	7.8042
C	-2.0887	-3.0724	-1.8407
C	-2.7932	-2.9582	-0.6935
C	0.1915	-0.2938	-2.9418
C	2.9542	3.7332	8.2295
H	-0.3999	4.2058	-3.1899
C	-1.6724	-2.6855	-4.8380
H	5.0041	6.7364	1.3061
C	2.9589	4.6668	5.9061
H	0.2328	0.2591	-5.0028
H	-3.1942	-3.7892	5.5945
H	2.2968	-2.6272	-7.8970
H	-4.9665	-1.1299	0.6777
C	-0.0400	5.2841	-4.8932
H	-4.1303	-4.4972	6.6805
H	1.4253	-3.8265	-8.5015
C	5.9578	5.7644	-0.1685
H	-0.5222	-4.5277	-7.2536
H	-4.4596	-3.0134	6.1883
H	3.0106	-3.9823	-8.3587
H	-2.2192	-3.7215	-2.5221
C	3.6057	-1.3595	7.1517
H	2.5061	3.1115	8.8405
H	-3.5552	-3.4674	-0.4469
C	0.5045	5.1946	-6.1551
C	2.4156	-2.3162	7.3630
H	4.0279	-4.3041	-6.0887
C	-3.0672	-3.9288	-6.5617
H	3.1012	-4.1585	-4.7943
H	2.8531	4.6496	8.5616
H	3.9068	3.5079	8.1767
H	-2.4862	-2.3562	-4.4750
H	3.3976	-2.8847	-5.7146
H	3.9233	4.5005	5.8388
H	2.8072	5.5642	6.2726
H	-0.4269	6.0995	-4.5960
H	2.5543	4.6055	5.0160
C	1.6601	2.5526	-1.4547
H	0.5280	5.9470	-6.7338
H	6.6035	6.4416	-0.3334
H	1.7240	-1.8650	7.8915
C	-3.8551	-2.6814	-6.9539
H	2.7213	-3.1184	7.8387
C	-8.7416	-1.9626	2.1574
H	2.0451	-2.5730	6.4923
C	-7.6491	-2.1214	-0.0736
C	0.8197	3.9073	6.9494
C	4.7206	-2.0679	6.3715
C	0.7268	-2.7844	-4.8101
C	1.9914	2.2389	-0.1269
C	-2.9143	-4.8191	-7.7889
C	4.1585	-0.9750	8.5363
C	2.2804	3.7450	-2.0979
C	-7.4691	-0.0458	1.2873
C	-6.1931	-2.9850	3.0530
C	-2.4954	-1.6455	1.4128
H	-4.0268	-2.1394	-6.1544
H	-4.7078	-2.9457	-7.3577
H	-3.3365	-2.1563	-7.5984
H	-9.5413	-1.5804	1.7369
C	-3.7775	-2.1628	1.9734
C	0.7279	-3.6107	-5.9359
H	-8.8228	-2.9389	2.1895
C	-5.0147	-3.4745	3.6049
C	0.8895	1.6846	-2.2416
H	-6.8576	-1.8819	-0.5989
H	-8.4476	-1.7329	-0.4906
C	2.0510	5.0266	-1.6113
H	-7.7396	-3.0981	-0.0415
N	1.3686	1.2466	0.6146
C	-3.8598	-4.7008	-5.4806
C	-3.8050	-3.0585	3.0405
H	-2.4321	-4.3312	-8.4883
N	4.0385	5.0148	1.0657
H	-3.8010	-5.0731	-8.1211
C	-1.5885	-0.9872	2.2390
H	-2.4121	-5.6253	-7.5488
H	-6.6976	0.2455	0.7605
C	0.3086	-0.1427	2.9386
H	-7.3974	0.3099	2.1970
N	0.4958	0.4220	-1.8070
C	5.0170	3.6349	-0.6423
H	-8.2935	0.2828	0.8700
H	4.3666	-2.3901	5.5169
H	5.0534	-2.8271	6.8952
N	-1.1322	-1.3643	-0.6192
C	-1.6547	-0.9378	3.6808
H	1.5547	-2.5222	-4.4260
H	5.4533	-1.4381	6.2053
C	2.0204	-4.1734	-6.5523
H	1.4924	5.1543	-0.8544
H	4.8759	-0.3168	8.4292
H	4.5136	-1.7735	8.9805
H	3.4399	-0.5912	9.0795
H	-7.0211	-3.2539	3.4335
H	5.0146	2.8168	-1.1254
C	3.6869	4.6767	-3.8318
H	-2.9872	-3.3928	3.3911
C	3.1094	3.5753	-3.2117
H	-2.3945	-1.1841	4.2224
H	4.2478	4.5547	-4.5884
H	3.2788	2.7016	-3.5467
C	5.9696	4.5920	-0.8976
C	1.9310	-5.7083	-6.6288
C	-0.4599	-0.4737	4.1096
H	-3.3894	-5.5305	-5.2623
H	-4.7548	-4.9139	-5.8205
H	-3.9386	-4.1483	-4.6759
C	2.6449	6.1222	-2.2391
H	6.6282	4.4497	-1.5683
C	1.5084	0.5626	2.9728
H	-0.1800	-0.3846	5.0126
C	1.0196	3.9663	-6.5583
H	2.7825	-6.0691	-6.9524
C	4.0609	3.8829	0.3321
H	1.2125	-5.9641	-7.2443
C	2.1304	0.7615	4.3244
C	3.4458	5.9433	-3.3507
H	1.7405	-6.0691	-5.7363
C	3.0490	2.8473	0.6710
C	2.5006	2.2290	6.2237
C	-4.9924	-4.4556	4.7882
C	-0.4194	-1.5574	-2.9627
C	-6.2106	-2.1147	1.9621
C	2.0639	2.0180	4.9134
C	-6.3919	-4.7103	5.3623
C	2.3227	3.6227	6.8316
C	1.9757	1.2530	1.8528
H	2.4967	6.9972	-1.8997
C	2.6449	-0.3104	5.0405
C	-7.5021	-1.5784	1.3409
H	1.3583	3.8941	-7.4415
C	-4.4149	-5.7991	4.3031
C	2.2051	-3.6012	-7.9518
H	-8.6546	-1.6143	3.0696
C	3.2459	-3.8515	-5.7132
H	3.8315	6.6957	-3.7833
C	-4.1150	-3.8874	5.9148
C	3.0359	2.2135	1.8747
N	1.0648	2.8832	-5.7796
C	0.6545	1.7893	-3.6788
C	3.1059	-0.1386	6.3624
H	-6.7906	-3.8603	5.6403
C	-0.4693	-2.3372	-4.2379
H	-6.3237	-5.3069	6.1359
H	1.7146	2.7491	4.4163
H	-6.9552	-5.1273	4.6761
N	-0.3907	-0.4567	1.7991
H	2.6861	-1.1705	4.6361
C	-0.0165	4.1709	-4.0586
C	-2.1751	-1.9212	0.0853
H	0.3998	3.8162	6.0683
C	-1.1024	-2.0215	-1.8363
H	3.6257	2.3798	2.6000
H	0.6844	4.8189	7.2823
H	0.4139	3.2674	7.5718
C	3.0306	1.1348	6.9195
*