! UKS B3LYP ma-def2-SVP OPT NumFreq
%basis
NewGTO Rh "ma-def2-TZVP" end
end 

%scf
  maxiter 200
end

%pal 
	nprocs 16
end
* xyz 0 1
H	1.5200	1.7010	4.5719
H	3.5763	2.0836	3.2495
H	-1.1670	-0.7784	-5.0599
H	-3.2495	-1.1021	-3.7552
H	3.7044	-0.3860	-9.0890
H	-4.6033	-0.5331	1.3634
H	-3.4382	0.2198	3.4096
H	-2.3322	3.3858	6.4583
H	-1.4673	-0.4424	7.3300
H	2.5640	-1.7225	-4.7163
H	-0.8021	-0.7808	5.1662
H	3.2264	-1.9482	-6.9298
H	-2.8005	2.6771	8.6275
H	1.1495	1.3258	-7.9077
H	-1.7593	1.5906	9.1724
H	0.4829	1.5735	-5.7297
H	-3.2343	1.1419	8.7439
H	2.3257	0.2271	-9.6239
H	2.4800	-1.3547	-9.4377
H	-4.0827	-2.9340	-1.6482
H	-6.2395	-3.5349	-2.1840
H	-7.4460	0.2099	-1.4942
H	-5.2493	0.8402	-1.1545
H	-9.1180	-1.3400	-1.9937
H	-8.8040	-2.8359	-1.5156
H	-8.6318	-2.4337	-3.0557
H	-1.5940	3.0474	4.2857
H	0.2006	-1.5779	2.0255
H	2.6328	-1.1462	2.0575
H	2.8863	-2.4705	1.1952
H	2.3877	-2.5858	2.7113
C	3.9316	1.5318	-1.9607
H	1.0435	-3.8733	0.3361
H	0.8080	-4.1063	1.9043
H	-1.3103	-3.2013	0.1307
H	-1.1670	-4.7316	0.6070
H	-1.2097	-3.8046	2.9542
H	-1.7799	-2.4607	2.2907
H	-4.9063	-3.9689	3.2679
H	-4.1144	-2.5784	3.3080
H	-3.6200	-3.8046	4.2071
Rh	0.1966	0.3858	-0.2234
C	0.6014	1.1639	2.6996
C	1.6192	1.5906	3.6326
C	2.7375	1.7991	2.9062
C	2.4469	1.5244	1.5355
C	3.3201	1.6765	0.4773
C	4.6753	2.2552	0.7849
C	3.0226	1.3650	-0.8490
C	5.8377	1.5171	0.5899
C	7.0759	2.0934	0.8982
C	3.3187	1.0462	-3.0558
C	7.2164	3.3760	1.4060
C	2.0172	0.6097	-2.6580
C	6.0526	4.0823	1.5745
C	4.7896	3.5428	1.2640
C	1.0435	0.1168	-3.5423
C	-0.2746	-0.2217	-3.1726
C	8.5455	3.9621	1.7474
C	-1.2786	-0.6508	-4.1242
C	-2.4080	-0.8348	-3.4076
C	-2.1132	-0.5503	-2.0248
C	-3.0208	-0.5969	-0.9820
C	-2.7481	-0.2609	0.3593
C	-3.6916	-0.2781	1.4260
C	-3.0594	0.1315	2.5426
C	-1.6959	0.4135	2.1668
C	-0.7125	0.8647	3.0658
C	-2.0196	2.5275	6.2039
C	1.4401	-0.0549	-4.9781
C	-2.0141	1.5097	7.1437
C	2.2637	-1.0972	-5.3628
C	-1.5210	0.2786	6.7120
C	2.6521	-1.2296	-6.6885
C	-1.1092	0.0800	5.4216
C	2.2334	-0.3615	-7.6622
C	-2.4933	1.7501	8.5423
C	1.4332	0.6882	-7.2611
C	1.0407	0.8402	-5.9647
C	2.7293	-0.4792	-9.0766
C	-4.4353	-1.0040	-1.2759
C	-4.7645	-2.2743	-1.6196
C	-6.0605	-2.6373	-1.9269
C	-7.1003	-1.7348	-1.8705
C	-6.7615	-0.4473	-1.5496
C	-5.4517	-0.0770	-1.3047
C	-8.5396	-2.1198	-2.1323
C	-1.1271	1.0855	4.4768
C	-1.5816	2.3239	4.8983
C	0.8631	-1.4552	0.0120
C	0.8369	-2.0291	1.3985
C	2.3257	-2.0610	1.8865
C	0.5256	-3.5667	1.1232
C	-0.9949	-3.7899	0.8617
C	-1.7248	-3.4441	2.1900
C	-3.1200	-4.0327	2.1987
C	-4.0221	-3.5520	3.3504
N	1.1289	1.1134	1.4398
N	1.8382	0.8336	-1.3047
N	-0.7924	-0.1623	-1.9169
N	-1.5169	0.1680	0.8291
O	1.3534	-2.0806	-0.9426
O	-3.4822	-4.7856	1.2944
H	4.8007	1.9119	-1.9235
H	3.6837	1.0021	-3.9323
H	5.7923	0.6293	0.2524
H	7.8610	1.5784	0.7516
H	6.1008	4.9676	1.9134
H	4.0101	4.0725	1.3867
H	8.4229	4.8744	2.0813
H	9.1101	3.9793	0.9479
H	8.9752	3.4152	2.4389
*