! UKS B3LYP ma-def2-SVP OPT NumFreq
%basis
NewGTO Rh "ma-def2-TZVP" end
end 

%scf
  maxiter 200
end

%pal 
	nprocs 16
end
* xyz 0 1
H	-4.9534	1.2352	0.4395
C	-4.6638	-5.4656	0.5672
H	-4.9701	-1.1876	0.4209
C	-3.8045	-4.4773	0.0928
H	-1.0839	-4.8843	0.7625
C	-6.1025	-6.4949	2.3439
C	3.3090	-3.5250	-1.0874
H	0.1206	-0.2797	3.5391
H	1.2694	-4.8996	0.1012
H	4.5908	-1.2372	-1.9308
C	3.1032	-4.4602	-2.0737
H	4.5853	1.1719	-1.9648
C	4.0484	-5.4382	-2.3247
H	1.2945	4.8856	-0.0060
C	5.1970	-5.5220	-1.6383
C	5.4064	-4.6261	-0.6214
H	-1.0283	4.8941	0.7470
H	-3.6543	-2.6957	2.7554
C	4.4581	-3.6190	-0.3455
H	-5.0758	-4.3491	3.5214
C	6.2682	-6.5787	-1.9448
C	3.2879	3.4818	-1.2297
H	-4.9116	-6.1649	0.0053
H	-3.4985	-4.5166	-0.7840
C	3.0940	4.3094	-2.2893
C	4.0289	5.2874	-2.6106
H	-6.3359	-6.3256	3.2594
H	-5.6766	-7.3532	2.2737
C	5.1525	5.4584	-1.8925
C	5.3475	4.6548	-0.8095
H	-6.8978	-6.4863	1.8048
C	4.4128	3.6477	-0.4684
H	2.3209	-4.4346	-2.5751
H	3.8815	-6.0623	-2.9934
C	6.2020	6.4980	-2.2975
C	-3.3686	3.4836	0.9081
H	6.1820	-4.6825	-0.1099
C	-3.7803	4.4752	0.0872
H	4.6131	-3.0154	0.3429
C	-4.6499	5.4704	0.5310
H	5.9761	-7.1309	-2.6736
C	-5.1275	5.4601	1.8193
H	6.4129	-7.1241	-1.1678
C	-4.7217	4.4599	2.6395
H	7.0889	-6.1410	-2.1845
C	-3.8557	3.4579	2.1928
H	2.3265	4.2205	-2.8073
C	-6.0811	6.5424	2.3054
H	3.8731	5.8414	-3.3424
C	0.4683	0.0605	1.6837
H	6.1069	4.7693	-0.2870
C	-0.3273	-0.4063	2.6983
H	4.5630	3.1006	0.2692
N	-2.0361	0.0058	0.1859
H	5.8983	6.9750	-3.0723
N	-0.0664	-2.0220	-0.1899
H	7.0304	6.0551	-2.4980
N	1.8642	-0.0175	-0.8402
H	6.3350	7.1152	-1.5744
N	-0.0566	2.0152	-0.2307
H	-3.4763	4.4941	-0.7910
O	1.4697	0.6436	2.0031
H	-4.9089	6.1457	-0.0532
H	-5.0257	4.4410	3.5176
H	-3.6070	2.7706	2.7683
H	-6.3081	6.3800	3.2249
H	-6.8783	6.5304	1.7709
H	-5.6572	7.4007	2.2279
H	-0.4998	-1.3398	2.5657
H	-1.1563	0.0759	2.7023
Rh	-0.0527	-0.0073	-0.1984
C	-2.8448	1.1138	0.3341
C	-4.2059	0.6829	0.3978
C	-4.2157	-0.6456	0.3883
C	-2.8515	-1.0970	0.3173
C	-2.4153	-2.4067	0.4426
C	-1.0965	-2.8311	0.2519
C	-0.6002	-4.1576	0.4442
C	0.6961	-4.1661	0.0797
C	1.0296	-2.8509	-0.3424
C	2.2781	-2.4445	-0.8271
C	2.6417	-1.1312	-1.0964
C	3.8965	-0.6884	-1.6433
C	3.8940	0.6299	-1.6636
C	2.6322	1.0828	-1.1369
C	2.2664	2.4030	-0.9079
C	1.0444	2.8205	-0.4078
C	0.7209	4.1538	0.0058
C	-0.5618	4.1623	0.4158
C	-1.0745	2.8321	0.2470
C	-2.3864	2.4372	0.4589
C	-3.4048	-3.4480	0.9044
C	-3.8971	-3.3950	2.1919
C	-4.7598	-4.3918	2.6475
C	-5.1539	-5.4194	1.8593
*