! UKS B3LYP ma-def2-SVP OPT NumFreq
%basis
NewGTO Rh "ma-def2-TZVP" end
end 

%scf
  maxiter 200
end

%pal 
	nprocs 16
end
* xyz 0 1
C	-3.5579	-0.2186	2.6415
C	-4.1942	-0.6606	1.5444
C	-3.2786	-0.5378	0.4449
C	-3.5737	-0.8364	-0.8806
C	-2.6800	-0.7098	-1.9434
C	-2.9868	-0.9478	-3.3216
C	-1.8614	-0.7848	-4.0254
C	-0.8265	-0.4085	-3.1098
C	0.4863	-0.1183	-3.4618
C	1.4623	0.3595	-2.5960
C	2.7899	0.7404	-2.9765
H	7.2725	1.1998	1.0102
C	3.4042	1.2133	-1.8731
C	2.4832	1.1085	-0.7843
C	2.7719	1.4415	0.5396
H	7.9319	4.5038	2.1771
H	-9.1812	-3.4011	-1.5953
C	1.8693	1.3266	1.5963
C	-1.6838	0.8842	4.5552
H	8.6079	3.5576	1.1284
C	-1.7234	-0.1518	5.4607
C	0.0275	0.9976	2.7704
C	-2.1373	0.0650	6.7622
C	-1.2718	0.6687	3.1251
C	-2.5429	1.3017	7.1845
C	-4.9642	-1.3084	-1.2002
C	-2.5042	2.3337	6.2832
C	-5.1943	-2.5656	-1.6672
C	-2.0793	2.1306	4.9778
C	-3.0257	1.5441	8.5985
C	-6.0428	-0.4661	-1.0585
C	0.8689	-0.3190	-4.9109
C	0.5863	0.6398	-5.8617
C	0.9556	0.4605	-7.1785
C	1.6192	-0.6833	-7.5909
C	1.8647	-1.6474	-6.6434
C	1.5088	-1.4612	-5.3172
C	2.0524	-0.8750	-9.0269
C	4.1371	1.9899	0.8473
C	5.2722	1.2088	0.7612
C	6.5165	1.7380	1.0851
C	6.6559	3.0327	1.5141
C	5.5136	3.8183	1.6026
C	4.2844	3.2940	1.2722
H	-4.4797	-3.1474	-1.7964
H	-6.6291	-3.8554	-2.2559
C	0.1762	-1.7363	0.2223
C	1.5585	-1.9357	0.7055
C	2.6056	-2.1306	-0.1678
C	3.8954	-2.3655	0.2895
C	4.1010	-2.4024	1.6196
C	3.1077	-2.2237	2.5260
C	1.8344	-1.9884	2.0669
N	-2.0742	-0.0382	0.9034
N	-1.3493	-0.3461	-1.8380
N	1.2920	0.6050	-1.2455
N	0.5534	0.9325	1.4913
F	5.3711	-2.6320	2.0697
H	-3.9141	-0.1721	3.4989
H	-8.0334	-0.3088	-1.2450
H	-9.5978	-1.9277	-1.9343
H	2.9932	1.8924	3.3056
H	-9.0212	-2.8585	-3.0575
H	0.9446	1.5726	4.5867
C	8.0271	3.5929	1.8900
H	-5.0647	-0.9859	1.5044
H	-3.8203	-1.1756	-3.6665
H	-1.7676	-0.8955	-4.9433
H	-1.4696	-1.0058	5.1938
H	3.1601	0.6749	-3.8274
H	4.2706	1.5483	-1.8285
H	-2.1387	-0.6441	7.3634
H	-2.7691	3.1848	6.5508
H	-2.0600	2.8452	4.3830
H	-3.2671	2.4680	8.7005
H	-3.7914	0.9925	8.7738
H	-2.3263	1.3255	9.2184
H	-5.9089	0.4036	-0.7597
C	-6.4897	-2.9886	-1.9521
H	0.1417	1.4160	-5.6123
H	3.2843	-2.2608	3.4384
H	0.7542	1.1204	-7.8022
H	2.2772	-2.4416	-6.8980
H	1.7075	-2.1218	-4.6926
H	2.5021	-1.7182	-9.1160
H	1.2826	-0.8624	-9.5993
H	2.6497	-0.1677	-9.2772
H	5.2046	0.3242	0.4847
H	5.5798	4.7023	1.8848
H	3.5312	3.8355	1.3372
H	8.4010	3.0702	2.6033
C	2.1696	1.6228	2.9676
C	-7.5602	-2.1549	-1.7940
C	1.0454	1.4382	3.6724
C	-7.3202	-0.8955	-1.3525
H	0.0617	-2.2475	-0.5942
H	-0.4336	-2.1020	0.8823
C	-8.9701	-2.6291	-2.1254
H	2.4455	-2.1042	-1.0835
H	4.5976	-2.4946	-0.3072
H	1.1460	-1.8616	2.6792
Rh	-0.3714	0.2171	-0.1559
C	-2.2417	0.1685	2.2578
*