! UKS B3LYP ma-def2-SVP OPT NumFreq
%basis
NewGTO Ru "ma-def2-TZVP" end
end 

%scf
  maxiter 200
end

%pal 
	nprocs 16
end
* xyz 0 1
H	3.1133	1.9747	4.3358
H	0.0526	-0.3940	-5.0928
C	3.9319	-0.9930	9.0297
H	2.4550	-0.3959	-4.4954
H	3.1191	-1.9676	6.8521
H	2.2384	-1.9452	4.6904
H	2.9747	-1.1780	9.1252
H	-3.0559	-1.9732	-4.1882
H	-4.4130	2.1520	2.6997
H	-4.0651	-2.0068	-6.2887
H	-6.3144	2.1390	4.0382
H	-3.0977	1.8982	-6.8143
H	-6.2870	-1.9116	4.0370
H	-2.0857	1.9168	-4.7077
H	-4.3913	-1.8854	2.6751
H	-4.5184	1.6854	-8.5220
H	-8.2101	-1.6689	5.0709
H	-4.4895	0.6662	-9.7555
H	-8.6995	-0.7636	6.2963
H	-3.1266	1.0787	-9.0262
H	-7.1879	-1.2825	6.2400
C	7.8907	0.9216	-5.9269
H	-0.8686	2.2118	0.6073
H	0.7181	2.3013	0.5287
H	0.6012	2.5421	-1.8098
H	-0.2550	3.6845	-1.0849
H	-0.9927	2.4283	-1.7450
Ru	0.0331	-0.1478	0.0179
O	4.1173	0.1309	8.1645
C	-3.0097	0.1359	0.3931
C	-4.2373	0.1559	-0.3651
C	-3.9074	0.1210	-1.6752
C	-2.4675	0.0672	-1.7513
C	-1.7175	-0.0198	-2.9294
C	-0.3260	-0.0987	-3.0088
C	1.7270	-0.2867	-3.8948
C	1.8233	-0.0918	-2.4734
C	3.0212	-0.0082	-1.7390
C	3.1048	0.0485	-0.3466
C	2.5575	0.0611	1.8069
C	1.8171	0.0435	2.9895
C	0.4184	0.0463	3.0742
C	-0.3409	0.0592	4.2983
C	-1.6436	0.0868	3.9620
C	-1.7246	0.0988	2.5263
C	-2.9122	0.1335	1.7859
O	7.7223	-0.0459	-4.8870
C	0.4161	-0.2873	-4.2214
H	5.2025	0.1921	0.0662
H	4.5932	0.1585	2.4642
C	2.5435	0.0205	4.3018
C	3.0982	1.1745	4.8489
H	5.1779	-1.6241	-1.7179
C	3.1093	-1.1618	6.3496
H	7.0880	-1.5998	-3.0397
C	2.5820	-1.1401	5.0604
C	-2.4534	-0.0280	-4.2375
H	3.8280	1.6928	-3.6104
C	-4.1873	0.1318	2.5745
C	-3.0549	-1.1868	-4.7218
C	-4.7865	1.3233	2.9761
C	-3.6539	-1.2094	-5.9736
C	-5.9184	1.3173	3.7713
C	-3.6530	-0.0677	-6.7652
C	-6.4774	0.1115	4.1809
C	-3.0803	1.1082	-6.2863
C	-5.9066	-1.0841	3.7700
C	-2.4815	1.1166	-5.0298
C	-4.7726	-1.0638	2.9641
H	3.9984	1.9747	6.4859
C	-4.0795	0.8930	-8.8951
C	-7.9459	-0.9691	5.7050
C	-0.0846	1.9654	0.0560
C	-0.1929	2.7232	-1.2639
H	4.3145	-0.7953	9.9097
N	-1.9557	0.0911	-0.4782
H	4.3795	-1.7772	8.6485
N	0.5572	-0.0162	-1.9556
N	2.0376	0.0163	0.5328
N	-0.4513	0.0758	2.0124
N	-0.3329	-1.9340	-0.0860
H	5.7280	1.7078	-4.9632
O	-7.5704	0.2039	4.9888
O	-1.0245	-2.8243	-0.2475
H	7.1371	0.8641	-6.5510
H	8.7267	0.7446	-6.4061
H	7.9211	1.8198	-5.5361
C	4.3225	0.1367	0.4200
C	3.9901	0.1275	1.7302
O	-4.2301	-0.2010	-7.9957
H	-5.1176	0.1884	-0.0077
H	-4.5112	0.1305	-2.4086
H	0.0121	0.0502	5.1805
H	-2.3773	0.0969	4.5641
C	4.2844	0.0205	-2.5382
C	5.2837	-0.9478	-2.3782
C	6.4193	-0.9361	-3.1633
C	6.5877	0.0478	-4.1401
C	5.6167	1.0311	-4.3057
C	4.4833	1.0130	-3.5017
C	3.6277	1.1756	6.1276
C	3.6199	0.0114	6.8922
*