! UKS B3LYP ma-def2-SVP OPT NumFreq
%basis
NewGTO Rh "ma-def2-TZVP" end
end 

%scf
  maxiter 200
end

%pal 
	nprocs 16
end
* xyz 0 1
C	-0.8014	7.5801	-5.3966
H	1.7401	-6.1247	3.9757
C	0.8297	-0.3929	-1.1297
C	1.6039	-4.0761	-1.2588
C	1.0036	-2.8443	-1.4839
N	-1.6834	0.9258	-1.1518
O	0.9949	0.1647	-2.1579
F	-1.3479	7.3780	-6.5195
F	7.9914	2.7383	4.6211
F	8.6221	2.9648	2.7005
F	7.8135	4.5480	3.6849
H	3.1359	4.0474	0.3370
H	1.5658	4.7692	-1.3920
H	1.7829	-1.8309	4.3554
H	3.1109	0.1851	4.0045
H	-4.2370	0.7481	-3.0471
H	-3.1898	-3.8347	-0.5064
H	-0.8561	5.7392	-1.2890
H	-2.9872	-1.7698	-3.9396
H	-4.5678	-2.8199	-5.2572
H	-7.0040	-3.1346	-2.1235
H	1.5335	-4.3922	2.4838
H	-5.4128	-2.1266	-0.7872
C	0.3193	-6.7514	6.0930
H	3.2056	3.1398	3.8958
H	5.3178	3.7435	4.5707
H	6.8761	1.9663	1.3679
H	4.7443	1.3667	0.6715
H	2.8357	-1.0929	0.5074
H	3.8100	-3.1618	0.8754
H	3.0343	-5.0081	-0.2192
Rh	-0.3642	0.3457	0.2597
C	1.8189	2.4249	0.6922
C	2.3428	3.6228	0.1037
C	1.4781	4.0203	-0.8478
C	0.3940	3.0747	-0.8665
F	0.4008	7.9532	-5.6391
F	-1.4330	8.6220	-4.9641
C	-3.4680	0.9991	-2.5889
C	-2.7351	0.1878	-1.6600
C	-2.9935	-1.1539	-1.3722
C	-1.0744	-2.4183	1.3426
C	-0.1659	-2.3383	2.3945
C	-2.3428	-1.8960	-0.3883
C	0.6690	-1.2503	2.6398
C	-2.6002	-3.2662	-0.0654
C	1.6641	-1.2041	3.6780
C	2.3913	-0.0944	3.4865
F	1.2945	-6.6076	6.8948
C	1.8600	0.5839	2.3441
C	2.3964	1.7262	1.7489
C	-4.0304	-1.8431	-2.2183
C	-3.7914	-2.0493	-3.5639
C	-4.7451	-2.6707	-4.3569
C	-0.0587	-3.5172	3.3236
C	-5.9379	-3.0682	-3.8287
C	-6.1927	-2.8647	-2.4897
C	-5.2382	-2.2569	-1.6914
C	0.1797	-5.6200	5.1286
C	-6.9885	-3.7071	-4.6771
C	1.0600	-5.5020	4.0831
C	0.9333	-4.4587	3.1920
C	3.7481	2.1793	2.2222
C	3.9409	2.8956	3.3798
C	5.2047	3.2551	3.7872
C	6.2972	2.8984	3.0450
C	6.1360	2.1997	1.8804
C	4.8557	1.8388	1.4648
C	7.6644	3.2823	3.5145
C	1.4586	-1.7305	-0.8165
C	2.5156	-1.8445	0.0624
C	3.1005	-3.0831	0.2784
C	2.6404	-4.1806	-0.3734
N	0.6206	2.1088	0.0857
N	-1.3835	-1.3995	0.4757
N	0.7758	-0.1256	1.8633
F	-6.8361	-3.5009	-5.9160
F	-8.1876	-3.3083	-4.4454
F	-7.0664	-4.9674	-4.5487
H	-1.8027	-4.4044	1.4175
H	-1.6216	-3.0410	4.4753
H	-1.4084	-4.7612	5.9970
C	-1.8336	-3.5796	0.9899
F	-0.6636	-6.9074	6.8737
F	0.5113	-7.8815	5.5568
H	-3.1086	2.9038	-3.1985
H	-0.9163	7.5245	-2.7659
H	-0.8288	4.9876	-5.8491
H	-0.7512	3.2009	-4.3911
C	-0.9323	-3.6583	4.3738
C	-0.8150	-4.6948	5.2840
H	1.3006	-4.8304	-1.7086
H	0.2967	-2.7724	-2.0837
C	-0.7061	3.1222	-1.7275
C	-1.6951	2.1291	-1.8167
C	-2.8447	2.1820	-2.6767
C	-0.7878	4.2821	-2.6785
C	-0.8437	5.5818	-2.2053
C	-0.8800	6.6535	-3.0902
C	-0.8606	6.4202	-4.4503
C	-0.8252	5.1382	-4.9321
C	-0.7831	4.0691	-4.0575
*