! UKS B3LYP ma-def2-SVP OPT NumFreq
%basis
NewGTO Rh "ma-def2-TZVP" end
end 

%scf
  maxiter 200
end

%pal 
	nprocs 16
end
* xyz 0 1
C	-1.1013	-0.7263	-0.6403
C	-1.1025	-0.3258	-2.0300
C	-1.6217	0.9999	-2.5266
C	-1.2329	1.4598	-3.7880
C	-1.6961	2.6348	-4.3414
C	-2.6064	3.3591	-3.6177
C	-3.0541	2.8740	-2.3950
C	-2.5340	1.7294	-1.7720
N	1.3317	0.9034	-0.9492
C	-2.1616	-1.8788	3.4459
C	-1.4440	-2.9560	3.1419
C	-0.4339	-2.5701	2.1634
C	0.4911	-3.4503	1.5687
H	-1.1453	4.6557	1.3512
H	-2.4744	3.3221	2.9046
H	3.5262	-3.5362	-1.6845
H	-4.6411	0.3430	2.3979
H	6.2036	-1.7704	-4.5918
H	-6.4120	0.8664	3.7474
H	5.1187	-1.1836	-2.5908
H	-4.0514	1.9541	6.5990
H	6.2608	-2.6507	-6.7575
H	-2.2016	1.3647	5.3504
C	0.4726	-4.8844	2.0016
H	5.1337	-1.9925	-7.6261
C	0.1940	-5.8823	1.1188
H	5.0153	-3.4953	-7.1967
C	0.1138	-7.1472	1.5463
H	-7.4151	1.5933	5.7537
C	0.3112	-7.5106	2.8694
H	-6.5572	2.7207	6.4244
C	0.5878	-6.4784	3.7127
H	-6.5433	1.2695	7.0153
C	0.6812	-5.2148	3.3050
C	0.1415	-8.9632	3.3312
H	-1.9209	-0.3998	-0.2379
H	-2.7823	1.4757	-0.9124
Rh	0.3668	-0.1558	0.4744
N	-0.5527	-1.2047	1.9223
C	-0.3318	2.8278	0.6327
C	-1.1318	3.7292	1.4257
C	-1.8563	2.9956	2.2913
C	-1.5019	1.6184	2.0962
C	-2.0487	0.5307	2.7863
C	2.8836	-3.2137	-1.0952
C	-1.6124	-0.7620	2.7096
C	3.2842	-1.3422	-3.2822
C	-3.2238	0.8214	3.6972
C	3.1927	-2.0691	-5.5813
C	-4.4861	0.6641	3.2559
C	4.5768	-2.1987	-5.6459
C	-5.5505	0.9787	4.0799
C	5.2748	-1.7929	-4.5526
C	-5.4124	1.4281	5.3002
C	4.6142	-1.3990	-3.3413
C	-4.1741	1.6012	5.7474
C	5.3157	-2.6243	-6.9271
C	-3.0549	1.2774	4.9903
C	-6.5926	1.7863	6.2075
H	2.5227	-4.7588	0.1601
H	1.6446	-1.7229	-4.3597
H	2.6787	-2.2251	-6.3405
N	-0.5418	1.5404	1.0989
C	2.3250	-3.8839	-0.0869
C	2.3138	-1.9158	-1.1010
C	2.5490	-0.9166	-2.0184
H	2.9348	1.3514	-3.6202
H	1.9857	3.3895	-2.7824
C	2.5735	-1.7123	-4.3999
H	2.5620	4.8553	-0.4232
H	2.6927	7.0903	-0.8799
H	-1.1573	7.1590	-1.7367
H	-1.3426	4.9068	-1.2654
H	1.8104	9.1469	-1.5608
H	0.3211	9.3465	-1.1125
H	0.6498	8.9949	-2.6036
H	-0.6306	0.9470	-4.2772
H	-1.4025	2.9243	-5.1751
H	-2.9228	4.1720	-3.9421
N	1.4179	-1.7916	-0.0520
H	-3.7380	3.3353	-1.9653
O	-0.5465	-1.0739	-2.8918
C	2.1017	0.4038	-1.9537
C	2.4317	1.4400	-2.8426
C	1.9076	2.5502	-2.3894
C	1.2080	2.2542	-1.2071
H	-2.8856	-1.8484	4.0289
H	-1.5654	-3.8085	3.4929
C	0.4862	3.1542	-0.4224
C	0.5853	4.6280	-0.7942
C	1.7969	5.3139	-0.6872
C	1.8731	6.6594	-0.9678
C	0.8059	7.3692	-1.3624
H	0.0610	-5.6853	0.2209
C	-0.4004	6.6898	-1.4686
H	-0.0848	-7.8133	0.9286
C	-0.5186	5.3324	-1.1874
H	0.7169	-6.6647	4.6149
C	0.9056	8.8508	-1.6898
H	0.8931	-4.5487	3.9193
H	0.3104	-9.0213	4.2750
H	0.7628	-9.5236	2.8611
H	-0.7545	-9.2553	3.1481
H	-1.1348	-1.6951	-0.6114
C	1.3770	-3.0340	0.5471
*