! UKS B3LYP ma-def2-SVP OPT NumFreq
%basis

end 

%scf
  maxiter 200
end

%pal 
	nprocs 16
end
* xyz 0 1
C	2.3133	7.9416	-3.0577
C	1.8392	9.0255	-2.3288
C	1.9811	10.3146	-2.8290
Fe	-2.9039	-7.2879	3.0513
C	2.5960	10.5181	-4.0590
Fe	-3.2250	-5.2267	1.6430
C	3.0701	9.4342	-4.7879
C	2.9282	8.1451	-4.2877
C	3.4661	4.5413	4.0429
C	1.7410	1.0591	0.7821
C	3.0907	1.7723	2.4420
C	2.8329	2.8468	1.4930
C	3.3365	4.1453	1.5706
H	2.4164	-0.1748	2.4366
C	3.1951	5.1598	0.6212
C	2.6639	6.2028	-1.2680
C	2.1135	6.5326	-2.5149
C	1.2728	5.6600	-3.2650
C	0.5302	6.0608	-4.4433
C	-0.1947	4.9721	-4.8487
C	0.1048	3.8929	-3.9279
C	-0.4434	2.6022	-3.9969
C	-1.3147	2.3277	-5.2027
H	-1.4223	-0.0675	-3.8047
C	-0.7598	2.2677	-6.4726
H	-0.7539	-1.2793	-1.7563
C	-1.5492	2.1241	-7.5954
H	1.4768	-2.3616	-0.7814
C	-2.9326	2.0342	-7.4767
H	1.1167	-4.3734	0.2300
C	-3.4930	2.0358	-6.1958
H	-0.7076	-2.4674	3.3239
C	-2.7006	2.1762	-5.0763
H	-0.3248	-0.4714	2.3026
C	-0.2762	1.5940	-3.0411
H	0.6889	-6.0837	1.1574
H	0.4385	-6.8474	2.5339
H	-0.2668	-5.7240	4.4093
H	-0.4476	-4.1399	4.4032
C	3.5455	2.4334	-3.7154
N	2.0082	2.3592	0.4911
N	2.5279	5.0052	-0.5888
N	0.9921	4.3520	-2.9784
N	0.4679	1.6918	-1.8820
O	3.5307	2.6416	-2.3057
H	3.7021	4.9500	6.0246
H	5.9636	5.5354	5.8946
H	7.0722	5.4738	3.8353
H	5.9170	4.8285	1.9041
H	4.2145	6.8607	1.4283
C	2.4307	0.6788	2.0172
C	5.4950	5.2719	5.1127
H	3.7351	7.9968	-0.7196
Zn	1.6783	3.2859	-1.3405
H	1.6571	11.0562	-2.3319
H	2.6940	11.4001	-4.4028
H	3.4910	9.5730	-5.6295
H	3.2522	7.4035	-4.7848
H	4.2356	2.5123	-1.8496
H	2.5469	4.3047	4.0954
C	-0.8730	0.2702	-3.1060
C	-0.5027	-0.3941	-1.9892
C	0.3501	0.4942	-1.2075
C	0.9203	0.1566	0.0362
C	0.6333	-1.1609	0.6407
C	1.0407	-2.3806	0.0616
C	0.8316	-3.5782	0.6641
C	0.1907	-3.6681	1.9334
C	-0.2458	-2.4547	2.4939
C	-0.0231	-1.2666	1.8797
C	0.0738	-6.1547	1.9280
C	-0.6325	-4.9651	3.8885
C	-2.6869	-3.7896	0.6720
C	-4.1598	-6.0269	0.3207
C	-4.6874	-4.4949	2.3273
C	-3.6341	-8.5089	2.0045
C	-4.2759	-7.2971	4.1794
C	-1.7861	-8.3495	4.0330
S	-1.5702	-6.7450	1.3030
S	-2.4635	-5.1744	3.7778
H	3.6281	1.8338	3.2220
N	0.0865	-4.8877	2.6335
H	1.4183	8.8867	-1.4891
H	0.5417	6.9175	-4.8556
H	-0.7833	4.9311	-5.5935
C	4.1247	4.5050	2.8186
H	0.1829	2.3292	-6.5722
H	-1.1452	2.0847	-8.4561
H	-3.4839	1.9742	-8.2485
O	-2.3741	-2.9218	-0.0061
C	4.1521	4.9248	5.1877
O	-4.7521	-6.5271	-0.5050
H	-4.4325	1.9363	-6.0933
O	-5.6238	-4.0057	2.7896
H	-3.0968	2.1699	-4.2122
O	-4.0892	-9.3183	1.2683
C	5.4670	4.8537	2.7411
O	-5.1467	-7.3002	4.9437
C	6.1530	5.2372	3.8878
O	-1.0848	-9.0153	4.6051
H	4.4412	2.1509	-3.9948
H	2.8943	1.7391	-3.9498
H	3.3108	3.2696	-4.1705
C	3.7412	6.4900	0.6937
C	3.4619	7.1211	-0.4701
*