! UKS B3LYP ma-def2-SVP OPT NumFreq
%basis
NewGTO Rh "ma-def2-TZVP" end
end 

%scf
  maxiter 200
end

%pal 
	nprocs 16
end
* xyz 0 1
H	-3.4789	-1.0957	-3.5244
H	-1.3425	-1.1327	-4.7204
H	2.2216	-1.9570	0.5521
H	1.6927	-2.1363	-0.9239
H	1.6437	-4.0362	1.1351
H	0.2679	1.1092	-5.6019
H	1.8219	-4.3079	-0.4090
H	-2.7524	-0.6318	7.1558
H	0.8622	0.5788	-7.7749
H	-2.0601	-0.9220	5.0036
H	-2.2636	0.8578	9.3473
H	-3.6364	1.3661	8.7838
H	0.2070	-1.7722	1.3688
C	-1.5580	2.2939	6.6496
H	-0.5091	-4.4594	0.9228
H	-0.3486	-4.6128	-0.6383
C	3.8068	1.1184	-1.6606
C	2.9109	0.8856	-0.5653
H	-1.6114	-2.5724	0.4387
H	-5.2677	1.5953	-1.2054
C	3.2586	0.8430	0.7854
C	2.3434	0.7285	1.8287
H	-7.5496	1.2922	-1.6661
H	-6.9925	-2.6371	-1.7725
C	2.6673	0.7377	3.2337
H	-4.7521	-2.3506	-1.3503
C	1.5322	0.7636	3.9167
H	-9.4216	-0.0127	-2.0058
H	-9.3696	-1.3785	-1.2371
Rh	-0.0316	0.3061	-0.0192
H	-9.1527	-1.3434	-2.7902
C	1.8160	0.4438	-2.4217
C	3.1323	0.8652	-2.7967
H	-1.0053	-2.5059	-1.0159
C	4.7160	0.8800	1.1461
C	5.3385	-0.2178	1.6831
C	0.4447	0.7395	2.9626
C	6.7068	-0.1919	1.9944
C	-0.9221	0.7303	3.2680
C	7.4556	0.9225	1.7597
C	-1.9338	0.5732	2.3256
C	6.8360	2.0259	1.2492
C	-2.3884	-0.3620	-1.8540
C	-3.3512	0.6120	2.6404
C	5.4900	2.0093	0.9390
C	-2.6514	-0.8407	-3.1829
C	-4.0108	0.3810	1.4884
C	8.9531	0.9262	2.0705
C	-3.0406	0.1906	0.4633
C	-1.4733	-0.8499	-3.8439
C	-0.4586	-0.3472	-2.9623
C	0.8562	-0.0792	-3.3061
C	2.0507	-0.9959	-7.3390
C	2.4920	-1.7481	-6.2715
C	2.1339	-1.4339	-4.9808
C	2.4667	-1.3230	-8.7611
H	7.3278	2.8021	1.1085
H	5.0949	2.7726	0.5839
C	1.4995	-2.3100	0.0094
C	-1.3039	0.9170	4.7116
C	-3.3363	-0.1624	-0.8618
C	-1.1331	2.1146	5.3588
C	1.2752	-0.3675	-4.7033
C	0.8250	0.3828	-5.7599
C	-2.1804	1.2922	7.3501
C	1.1935	0.0687	-7.0701
C	-2.3483	0.0742	6.7068
C	-1.9249	-0.0995	5.4165
N	1.6778	0.5381	-1.0679
C	-2.6841	1.4936	8.7627
C	0.2323	-1.7093	0.3916
C	1.3302	-3.7941	0.2502
H	-0.7200	2.8188	4.9134
C	-0.1629	-4.0380	0.1205
H	-1.4198	3.1163	7.0616
C	-0.7988	-2.6574	-0.0811
H	-2.4746	2.3844	9.0520
C	-4.7744	-0.3472	-1.2060
N	0.9751	0.7026	1.6838
N	-1.7749	0.3422	0.9895
C	-5.6079	0.7377	-1.3145
C	-6.9925	0.5510	-1.5932
C	-7.5110	-0.6984	-1.7542
C	-6.6553	-1.7777	-1.6592
C	-5.3078	-1.6077	-1.3979
C	-9.0011	-0.8739	-1.9657
H	4.6937	1.3938	-1.5981
H	3.5230	0.7285	3.5985
N	-1.0350	-0.0829	-1.7222
H	4.8467	-0.9922	1.8431
H	7.1079	-0.9442	2.3670
H	3.4591	0.9502	-3.6624
H	9.2087	0.0723	2.4245
H	9.1433	1.6100	2.7165
H	1.4475	0.7894	4.8432
H	9.4464	1.0999	1.2654
H	-3.7315	0.7673	3.4762
H	-4.9349	0.3496	1.3826
H	3.0431	-2.4800	-6.4261
H	2.4697	-1.9440	-4.2774
H	3.0521	-2.0827	-8.7584
H	2.9228	-0.5690	-9.1425
H	1.6867	-1.5208	-9.2855
*