! UKS B3LYP ma-def2-SVP OPT NumFreq
%basis
NewGTO Rh "ma-def2-TZVP" end
end 

%scf
  maxiter 200
end

%pal 
	nprocs 16
end
* xyz 0 1
H	-1.3792	0.9550	-4.7326
H	4.8233	0.9960	1.8043
H	-3.4927	0.9027	-3.5305
H	9.2372	0.0709	2.1390
H	-4.9462	-0.4327	1.4276
H	-2.3789	-2.3873	9.1145
H	9.4196	-1.0314	1.0406
H	-3.7241	-0.8057	3.4941
H	-3.5936	-1.4417	8.8172
H	9.2313	-1.4435	2.5410
H	2.3806	1.8428	-4.2762
H	1.4388	-0.7479	4.8654
H	-2.2573	-0.8467	9.3816
H	3.0124	2.3482	-6.4196
H	-4.7786	2.1990	-1.3726
H	2.0750	0.5502	-9.3652
H	-7.0286	2.4713	-1.7765
H	3.4143	1.1564	-8.8229
H	-7.5462	-1.4510	-1.5874
H	2.1507	2.0684	-8.9882
H	-5.3022	-1.7438	-1.1622
H	1.6983	2.0535	-0.9315
H	-9.4565	-0.1287	-1.9454
H	2.1759	1.7085	0.5199
H	-9.1792	1.1806	-2.7589
H	1.7235	3.8067	1.2746
H	-9.3839	1.2515	-1.2064
H	2.4948	4.0063	-0.0737
H	-0.6006	-2.7976	4.9567
H	-1.2636	-3.0886	7.1357
H	-2.8238	0.5614	7.1668
H	-2.1223	0.8897	5.0118
H	0.9211	-0.7404	-7.7845
H	0.2804	-1.2720	-5.6140
H	0.1232	1.7607	1.2985
C	1.5263	-0.7404	3.9391
C	2.6802	-0.7274	3.2465
C	2.3509	-0.7497	1.8425
C	3.2571	-0.8877	0.7978
C	2.9175	-0.9530	-0.5526
C	3.8103	-1.2029	-1.6436
H	0.6304	5.4293	0.1642
C	3.1325	-0.9717	-2.7833
H	0.6126	4.5956	-1.1642
C	1.8036	-0.5670	-2.4212
H	-1.4460	4.4949	-0.3057
H	-0.9002	4.1144	1.1118
H	-1.7649	2.1859	0.2228
H	-1.0085	2.3986	-1.1340
Rh	-0.0388	-0.3789	-0.0122
C	-0.4908	0.1884	-2.9660
C	-1.5038	0.6771	-3.8536
C	-2.6637	0.6603	-3.1885
C	-2.3997	0.2015	-1.8524
C	-3.3518	0.0168	-0.8505
C	-3.0463	-0.3058	0.4664
C	-4.0208	-0.4644	1.5222
C	-3.3489	-0.6639	2.6556
C	-1.9354	-0.6192	2.3570
C	-0.9091	-0.7385	3.2861
C	4.7225	-0.8989	1.1454
C	0.4480	-0.7404	2.9755
C	5.4908	-2.0199	1.0066
C	6.8493	-1.9956	1.2616
C	7.4841	-0.8579	1.6630
C	6.6921	0.2593	1.9018
C	5.3335	0.2369	1.6419
C	8.9791	-0.8113	1.8649
C	-2.6370	-1.5144	8.8063
C	2.0825	1.3112	-4.9788
C	2.4592	1.6152	-6.2684
C	0.8455	-0.0727	-3.3142
C	2.0320	0.8580	-7.3432
C	-4.7935	0.2015	-1.2022
C	-5.3319	1.4530	-1.4036
C	-6.6860	1.6152	-1.6535
C	2.4577	1.1881	-8.7599
C	-7.5284	0.5391	-1.7197
C	1.5159	2.2009	0.0091
C	-6.9915	-0.7068	-1.5389
C	-5.6404	-0.8859	-1.2817
C	1.6627	3.6911	0.3140
C	-9.0249	0.7293	-1.9277
C	-1.3006	-0.9195	4.7298
C	-1.0470	-2.1113	5.3957
C	-1.4534	-2.2866	6.7057
C	-2.1297	-1.3093	7.3874
C	-2.3715	-0.1212	6.7260
C	-1.9577	0.0746	5.4267
N	1.6657	-0.6343	-1.0598
C	1.2637	0.2257	-4.7156
C	1.2207	-0.2144	-7.0790
C	0.8321	-0.5390	-5.7679
C	0.1840	1.6749	0.3234
C	0.5474	4.5322	-0.1992
C	-0.7608	3.9895	0.1599
C	-0.9373	2.5030	-0.1716
N	-1.0500	-0.0651	-1.7345
N	-1.7782	-0.4146	0.9995
N	0.9805	-0.7180	1.7050
H	3.5359	-0.7087	3.6096
H	4.6973	-1.4753	-1.5780
H	3.4648	-1.0556	-3.6478
H	5.0903	-2.8144	0.7354
H	7.3432	-2.7771	1.1562
H	7.0822	1.0333	2.2396
*