! UKS B3LYP ma-def2-SVP OPT NumFreq
%basis
NewGTO Ru "ma-def2-TZVP" end
end 

%scf
  maxiter 200
end

%pal 
	nprocs 16
end
* xyz 0 1
H	-0.4361	-2.2251	1.5593
Ru	0.3281	1.2027	0.9928
N	-0.2453	-0.7144	0.2249
C	4.9875	-1.8698	-0.0819
H	1.0281	-2.0932	0.9849
N	-1.2094	1.9968	-0.1103
C	6.1402	-2.4656	-0.5593
N	1.5393	1.3004	-0.6636
C	-2.5049	2.1981	0.3235
N	1.8157	0.2578	2.0334
C	-3.2714	2.7688	-0.7657
N	-0.9351	0.9451	2.5935
C	-2.4605	2.9147	-1.8213
C	-1.1736	2.4125	-1.4319
C	-0.0530	2.3290	-2.2593
O	1.1645	3.8345	2.1277
C	-0.1819	2.8392	-3.6702
C	-1.0697	2.2978	-4.5769
C	1.1820	-1.7410	5.9606
C	1.3037	-2.1375	7.2908
C	-1.1485	2.7667	-5.8781
N	-0.8904	-0.8231	-0.8747
H	-2.3585	-4.7703	-4.5127
H	-1.2881	-4.3707	-2.5119
C	1.1931	1.7754	-1.9101
H	4.3109	-2.3971	0.2787
H	6.2154	-3.3925	-0.5354
C	2.2918	1.5399	-2.8215
C	3.2691	0.9049	-2.1388
H	1.3360	-2.3579	5.2817
C	2.8001	0.7529	-0.7835
H	1.5472	-3.0121	7.4936
C	1.0317	-3.5233	-1.0525
C	1.7083	-2.6799	-1.9209
C	3.5161	0.1179	0.2478
C	2.9147	-3.0463	-2.5158
C	4.8300	-0.4870	-0.1369
H	1.3467	-1.8456	-2.1139
C	3.4553	-4.2751	-2.1975
C	2.8073	-5.1134	-1.3498
H	3.3443	-2.4767	-3.1142
C	1.6009	-4.7532	-0.7850
C	3.0654	-0.0613	1.5676
H	4.2715	-4.5307	-2.5658
H	-4.1735	2.9952	-0.7336
H	3.1832	-5.9397	-1.1454
C	3.8777	-0.6047	2.6387
H	-2.6879	3.2740	-2.6464
H	1.1605	-5.3459	-0.2150
C	3.1009	-0.6098	3.7437
H	-1.6246	1.6023	-4.3087
C	1.7913	-0.0945	3.3769
H	-1.7499	2.3903	-6.4793
C	-0.2643	-3.0483	-0.3647
H	-2.1330	-0.4578	-2.8818
C	0.6690	0.0062	4.2237
C	-1.1521	-4.1815	0.1785
H	-3.1855	-0.8533	-4.8881
C	0.8316	-0.4236	5.6349
H	-1.9361	-3.8071	0.5856
H	2.3204	1.7835	-3.7187
C	7.1677	-1.7239	-1.0666
H	4.0853	0.6201	-2.4772
H	-0.6616	-4.6867	0.8294
H	-1.4134	-4.7582	-0.5459
C	-0.5829	0.4721	3.8344
C	-1.7678	0.4661	4.6744
C	1.0675	-1.2408	8.3100
H	7.9338	-2.1365	-1.3891
C	-2.7774	0.9572	3.9612
C	-2.2672	1.2541	2.6378
C	-3.0154	1.8469	1.5978
H	4.7584	-0.8926	2.5772
H	1.1498	-1.5105	9.1956
C	-4.4653	2.0844	1.8669
H	3.3550	-0.8926	4.5921
C	-5.3205	1.0055	2.0501
N	-3.5943	-3.1147	-6.1250
C	-6.6294	1.2068	2.4204
N	-1.0268	-2.1294	-1.2469
C	0.8509	2.8140	1.6811
H	-1.8108	0.1702	5.5548
H	-3.6509	1.0850	4.2565
H	-5.0077	0.1390	1.9229
C	0.0866	-2.0399	0.7609
H	-7.1878	0.4751	2.5499
O	-3.6204	-4.2761	-6.5606
C	-0.3108	3.8144	-6.2853
O	-4.1553	-2.1737	-6.6960
C	0.5770	4.3539	-5.4032
C	0.6522	3.8778	-4.1014
H	-0.3609	4.1415	-7.1540
H	1.1355	5.0463	-5.6746
H	1.2644	4.2532	-3.5101
C	-1.6246	-2.3629	-2.4930
C	-2.1831	-1.3253	-3.2154
C	7.0459	-0.3461	-1.0889
C	5.8825	0.2719	-0.6317
C	-2.8096	-1.5538	-4.4079
C	0.7095	0.0615	8.0128
H	7.7440	0.1732	-1.4118
C	0.5985	0.4671	6.6919
H	5.8144	1.1988	-0.6567
C	-2.8669	-2.8450	-4.8824
C	-7.1270	2.4829	2.6034
C	-6.2964	3.5839	2.3830
H	0.5412	0.6654	8.6994
C	-2.3048	-3.9048	-4.1769
C	-4.9790	3.3746	2.0113
H	0.3658	1.3467	6.5038
C	-1.6783	-3.6713	-2.9871
H	-8.0076	2.6077	2.8724
H	-6.6258	4.4474	2.4827
H	-4.4277	4.1063	1.8529
*