! UKS B3LYP ma-def2-SVP OPT NumFreq
%basis
NewGTO Rh "ma-def2-TZVP" end
NewGTO Br "ma-def2-TZVP" end
end 

%scf
  maxiter 200
end

%pal 
	nprocs 16
end
* xyz 0 1
H	-0.5047	-2.9402	1.9225
H	-3.0353	1.8623	3.7069
C	0.1842	-2.4889	-4.2928
H	-4.5570	1.4689	1.8683
H	-4.1353	-0.7481	-2.9302
H	-2.3452	-1.7135	-4.2178
C	0.5461	-2.0161	-6.5793
C	0.6060	-1.6738	-5.2980
C	4.3647	-2.1615	1.3468
H	-5.7564	-0.9911	0.2962
C	4.6367	-3.2477	2.1253
H	-7.9108	-0.4935	-0.2996
C	5.9403	-3.6048	2.4389
H	-6.7150	2.5716	-2.2932
H	-4.5390	2.0409	-1.7807
C	6.9852	-2.9286	1.9880
H	-9.5643	0.8208	-1.2798
C	6.7623	-1.8259	1.2065
C	5.4646	-1.4556	0.8844
H	-9.1509	2.3319	-1.3618
H	-1.1038	3.2527	9.0833
C	8.4206	-3.2857	2.3265
H	-9.0466	1.4209	-2.6322
H	-0.6701	-4.2991	-4.0538
H	-0.7360	-4.8959	-6.1789
H	-0.5587	-4.4975	-8.4553
H	-0.7695	-2.9865	-8.8192
C	0.5305	1.1085	-0.4528
C	-0.4868	3.4775	6.0438
C	0.2357	3.1667	-1.5678
C	-1.5544	3.6478	8.3304
C	2.4141	2.5765	-0.8147
C	1.8761	1.3961	-0.3318
H	-1.4118	-0.0339	5.7176
H	-1.8275	1.1184	7.6597
N	1.2542	-1.6590	-0.7074
N	1.0385	-0.4786	1.8850
H	-1.1673	1.7615	-1.1611
H	-2.1235	-4.0545	1.5366
H	-2.7753	-2.6459	1.3153
H	-2.1822	-3.4345	0.0975
Rh	-0.1791	-0.6421	0.2865
C	-1.5603	0.8622	2.5618
C	-2.8316	1.4259	2.9122
C	-3.6632	1.2143	1.9051
C	-2.9335	0.5183	0.8663
C	-3.4619	0.1513	-0.3549
C	-2.7466	-0.5133	-1.3668
C	-3.2606	-0.8737	-2.6411
C	-2.2936	-1.4159	-3.3382
C	-1.1362	-1.4672	-2.4878
C	0.0979	-1.9880	-2.8495
H	2.5830	-3.2163	-3.1371
C	-0.4460	0.8357	3.3640
H	4.0580	-3.0840	-1.1741
C	-4.8973	0.5034	-0.6695
H	3.6638	-0.8158	3.6401
H	1.9887	0.5464	4.7675
C	-5.9218	-0.2488	-0.2420
C	-7.2338	0.0703	-0.5968
C	-7.5717	1.0887	-1.3089
C	-6.5424	1.8309	-1.7565
C	-5.2196	1.5102	-1.4350
C	-8.9544	1.4474	-1.6775
C	-0.3442	-3.7106	-4.6975
C	-0.3969	-4.0578	-5.9588
C	0.0225	-3.2411	-6.9587
H	0.8588	-1.4292	-7.2298
H	0.9523	-0.8390	-5.0794
C	-0.1776	-3.6180	-8.4040
H	0.6695	-3.6097	-8.8563
H	3.9334	-3.7602	2.4519
H	6.0841	-4.3454	2.9840
H	7.4800	-1.3267	0.8911
H	5.3293	-0.7133	0.3423
H	8.4338	-4.0644	2.8871
C	-0.5922	1.5053	4.7076
H	8.9035	-3.4676	1.5162
C	-1.1865	0.8655	5.7777
H	8.8328	-2.5517	2.7867
C	1.5633	3.4527	-1.4240
C	-1.4465	1.5681	6.9399
C	-1.1613	2.9221	7.0734
C	-0.2208	2.8146	4.8636
H	0.2130	3.2577	4.1710
Br	2.2473	5.1106	-2.0874
C	-0.2639	1.9615	-1.0619
H	-0.1860	4.3537	6.1335
H	-1.3063	4.5719	8.2593
H	3.3199	2.7666	-0.7256
H	-2.5033	3.5800	8.4556
H	2.4356	0.7812	0.0855
C	-2.0768	-3.2394	1.0302
H	-0.3298	3.7685	-1.9958
N	-1.6670	0.2868	1.2975
N	-1.4549	-0.8985	-1.3013
O	-0.8450	-2.6360	1.2396
C	1.1955	-2.1169	-2.0032
C	2.3889	-2.7997	-2.3277
C	3.1989	-2.7352	-1.2445
C	2.4764	-2.0243	-0.2239
C	2.9832	-1.7019	1.0376
C	2.3098	-0.9745	2.0121
C	2.8274	-0.5877	3.3000
C	1.9060	0.1513	3.9302
C	0.7629	0.2207	3.0577
*