! UKS B3LYP ma-def2-SVP OPT NumFreq
%basis
NewGTO Ir "ma-def2-TZVP" end
end 

%scf
  maxiter 200
end

%pal 
	nprocs 16
end
* xyz 0 1
H	6.7290	-2.4837	-6.4151
H	2.7556	-3.3655	3.5941
H	7.4391	-3.1451	-5.1437
H	4.2917	-2.0428	1.8724
H	4.6435	-2.0350	-0.5697
H	5.0923	0.1110	-2.1894
H	4.5084	-3.1497	-5.4515
H	2.7250	-2.5654	-4.0775
H	1.9615	-0.0324	-4.7131
H	-0.2541	1.0330	-4.9967
H	-1.3797	3.5722	-4.0557
H	-4.0299	4.0069	-7.7906
H	-4.9184	2.6764	-7.8466
H	-3.4116	2.6548	-8.3848
H	-4.6787	1.0067	-6.0864
H	-3.8183	0.3654	-4.0140
H	-4.2288	2.4112	-1.7732
H	-4.6991	2.1461	0.6450
H	-5.0739	-0.2220	2.0474
H	-6.9261	0.0802	3.4140
H	-7.1314	2.2910	6.2278
H	-4.8853	2.7258	5.6372
H	-3.0292	2.4775	4.2477
H	0.7734	-2.9030	-0.8414
C	5.3880	-2.2848	7.1441
H	-0.0578	-2.3264	-2.0819
H	-0.5651	-3.6400	-1.3198
H	-7.5214	0.7570	5.9916
H	-2.6379	-2.7489	-1.0121
H	-8.0772	1.8855	5.0019
H	-2.2491	-1.3706	-1.7268
H	-2.8826	-1.3598	-0.2568
H	-1.4013	-3.5876	0.7883
C	4.0023	-0.6561	5.8033
H	-1.6474	-2.2278	1.5979
C	4.4217	-1.9524	6.0312
H	-0.1597	-2.7828	1.3980
C	3.9386	-2.9571	5.2007
Ir	-0.0386	0.0369	0.0365
C	-1.5213	0.2857	2.7069
C	-1.3580	-0.0173	4.1084
C	-0.0983	-0.4918	4.2725
C	0.5260	-0.5185	2.9803
C	1.8123	-1.0044	2.7384
C	2.6709	-1.3569	3.9151
C	3.1307	-0.3561	4.7631
C	3.0736	-2.6661	4.1525
C	2.3777	-1.1620	1.4712
C	6.0305	-0.9226	-3.6635
C	3.6823	-1.7201	1.2173
C	5.8852	-1.8948	-4.6333
C	3.8810	-1.7028	-0.1111
C	7.0465	-2.3218	-5.5032
C	2.7220	-1.0867	-0.7101
C	2.5841	-0.8034	-2.0669
C	3.7201	-1.1692	-2.9764
C	4.9673	-0.5618	-2.8474
C	4.6333	-2.4900	-4.7789
C	3.5664	-2.1396	-3.9623
C	1.4667	-0.1893	-2.6350
C	1.3241	0.1344	-4.0283
C	0.1169	0.7184	-4.1816
C	-0.5062	0.7786	-2.8852
C	-1.7569	1.3442	-2.6337
C	-2.4686	1.8681	-3.8462
C	-2.0438	3.0327	-4.4686
C	-2.5779	3.4171	-5.6900
C	-3.5264	2.6487	-6.3287
C	-4.0146	3.0310	-7.7091
C	-3.9929	1.5263	-5.6841
C	-3.4754	1.1384	-4.4468
C	-2.3670	1.4204	-1.3848
C	-3.6612	2.0024	-1.1321
C	-3.9176	1.8582	0.1880
C	-2.7838	1.1850	0.7755
C	-2.6590	0.8516	2.1262
C	-3.8454	1.0909	3.0076
C	-5.0255	0.3867	2.7753
C	-6.1294	0.5658	3.5944
C	-6.0963	1.4329	4.6666
C	-7.3137	1.6065	5.5498
C	-4.9311	2.1286	4.9001
C	-3.8157	1.9737	4.0761
C	-0.1253	-2.7708	-1.2107
C	-2.2898	-1.8439	-0.8691
C	-1.0431	-2.6957	0.9831
N	-0.3659	-0.0578	2.0385
N	1.8025	-0.8088	0.2745
H	-2.2835	4.2258	-6.0943
N	0.3325	0.2037	-1.9562
N	-1.8497	0.9366	-0.2030
N	-0.9245	-1.9227	-0.2803
Cl	0.9043	2.1609	0.4158
H	5.4823	-1.5109	7.7379
H	6.2612	-2.5130	6.7604
H	4.3134	0.0416	6.3680
H	5.0464	-3.0495	7.6565
H	4.2038	-3.8573	5.3517
H	-2.0120	0.0941	4.7898
H	0.2992	-0.7585	5.0923
H	2.8474	0.5411	4.6289
H	6.8705	-0.4933	-3.5525
H	7.7259	-1.6157	-5.5147
*