! UKS B3LYP ma-def2-SVP OPT NumFreq
%basis
NewGTO Ir "ma-def2-TZVP" end
end 

%scf
  maxiter 200
end

%pal 
	nprocs 16
end
* xyz 0 1
H	2.9023	-3.4406	-3.1368
H	-0.9884	-4.3928	2.8959
H	2.9817	-1.2872	-4.2575
H	0.6619	3.4402	-3.4735
H	0.5500	-5.2991	1.2428
H	-0.9457	4.3356	-1.8706
H	-3.8536	-3.2688	2.6646
H	-4.9585	-4.1142	4.4666
H	-2.5126	-2.2570	6.9179
H	-1.3445	-1.5239	5.1257
H	-4.2402	-3.4866	7.9414
H	5.0044	-8.5034	-1.5203
H	-5.5629	-3.5461	7.1033
H	4.9962	2.9289	-4.8524
H	-4.6085	-4.7891	7.1523
H	5.3421	3.6228	-6.8859
H	0.4299	-5.9416	-1.5320
H	1.4901	-7.9029	-1.8779
H	4.8436	-6.3054	-0.7374
H	3.8221	-4.2968	-0.4913
H	0.9142	1.0041	-5.6420
H	3.9625	-8.8767	-2.6302
H	2.0761	1.9794	-7.3648
H	3.7183	-9.3163	-1.1460
H	3.8445	1.8617	-3.1541
H	4.0357	4.0543	-7.6378
H	4.7541	2.7139	-8.0201
H	-0.7870	4.8862	1.0052
H	-1.8472	6.9083	1.3593
H	-5.2088	5.4056	0.0423
H	-4.2463	3.3361	-0.2081
H	-3.4893	8.4152	0.9921
H	-4.8751	7.7781	1.3526
H	-4.5129	8.0689	-0.1436
H	0.9183	0.7634	3.2776
H	1.2337	2.7653	4.3821
H	2.4567	4.4871	1.0017
H	2.2043	2.4542	-0.0826
H	3.0692	4.3708	5.3740
H	1.5104	4.4993	5.4601
H	2.4099	5.7762	5.5971
H	1.0505	6.1576	2.1871
H	1.1014	6.8921	3.5710
H	0.2162	5.6085	3.3963
H	4.3003	5.0471	3.3807
H	3.7834	6.5228	3.4985
H	3.6227	5.7424	2.1502
H	-1.1573	-2.5965	-3.1957
H	-2.5207	-3.1849	-2.5390
H	-2.5411	-0.2051	-3.0404
H	-3.0315	-1.0802	-4.3031
H	-3.8983	-2.7034	-2.4655
H	-4.8344	-1.4184	-2.6438
H	-3.5463	-0.1456	-1.0673
H	-3.4079	-1.5712	-0.3875
Ir	-0.1153	-0.4633	-0.2575
C	-1.9550	1.5303	1.1379
C	-2.8178	1.6588	2.2754
C	-2.8443	0.4753	2.8924
C	-1.9794	-0.3715	2.1974
C	-1.7475	-1.6970	2.4968
C	-0.9111	-2.5938	1.8149
C	-0.6384	-3.9370	2.1653
C	0.4950	-3.3797	0.3294
C	1.3049	-3.5393	-0.7949
C	0.2101	-4.4334	1.2640
C	1.5918	-2.5478	-1.7340
C	2.4546	-2.6696	-2.8715
C	2.5055	-1.4806	-3.4845
C	1.6997	-0.5635	-2.7478
C	1.4616	0.7715	-3.0545
C	0.6008	1.6209	-2.3705
C	0.3037	2.9844	-2.7456
C	-0.5794	3.4808	-1.8612
C	-0.8521	2.4555	-0.9059
C	-1.7190	2.5299	0.1951
C	-2.4922	-2.2854	3.7030
C	-3.5606	-3.0645	3.5247
C	-4.2260	-3.5609	4.6158
C	-3.8821	-3.2931	5.8996
C	-2.7893	-2.4910	6.0613
C	-2.1097	-2.0338	4.9842
C	-4.6472	-3.8301	7.1444
C	1.9988	-4.8595	-1.0012
C	1.3497	-5.9821	-1.3985
C	1.9825	-7.1616	-1.6088
C	3.3011	-7.2820	-1.4384
C	3.9442	-6.2256	-0.9572
C	2.2450	1.3612	-4.1866
C	3.3195	-5.0258	-0.7773
C	1.7424	1.3910	-5.4721
C	4.0724	-8.6252	-1.7097
C	2.4363	1.9726	-6.5081
C	3.6979	2.5678	-6.2658
C	4.1761	2.5313	-5.0362
C	3.4619	1.9036	-4.0008
C	4.5343	3.3117	-7.2974
C	-2.3905	3.8771	0.3872
C	-1.6945	4.9687	0.8158
C	-2.3172	6.2063	0.9726
C	-3.5544	6.3943	0.5854
C	-4.3013	5.3001	0.2110
C	-3.7335	4.0557	0.0823
C	-4.1649	7.7943	0.7090
C	1.4921	0.0303	0.8324
C	1.5694	1.3829	1.4854
C	1.2601	1.4951	2.8174
C	1.4534	2.7098	3.4794
C	1.9561	3.8271	2.8570
C	2.1880	3.7364	1.4804
C	2.0151	2.5110	0.8273
C	2.2450	5.1472	3.5687
C	2.3162	4.9267	5.1601
C	1.0363	6.0372	3.1394
C	3.6165	5.6626	3.1051
C	-1.9957	-2.3963	-2.7639
C	-2.8504	-1.0708	-3.3410
C	-3.9289	-1.7336	-2.4726
C	-3.2512	-1.0572	-1.1967
N	-1.4382	0.2791	1.1172
N	-0.2091	-2.2922	0.6616
N	1.1095	-1.2534	-1.6779
N	-0.1297	1.2909	-1.2309
O	2.4567	-0.7299	0.9148
O	-1.9835	-1.1262	-1.5907
H	-3.2757	2.4257	2.5342
H	-3.3469	0.2548	3.6431
*