! UKS B3LYP ma-def2-SVP OPT NumFreq
%basis
NewGTO Rh "ma-def2-TZVP" end
end 

%scf
  maxiter 200
end

%pal 
	nprocs 16
end
* xyz 0 1
H	2.1414	-1.8639	4.1456
H	-1.1793	-4.9194	1.2736
H	-2.6001	-4.5265	-0.7256
N	1.3899	-0.6013	1.2812
N	-0.7265	-2.0142	-0.0058
H	-3.7618	-0.1275	-3.5787
N	-1.0573	0.1369	-1.8508
H	-2.5084	1.9586	-4.0642
H	-0.8352	-2.3248	4.4352
H	-0.9726	-3.7102	6.2932
H	0.0497	-5.8165	6.2640
H	1.1778	-6.5244	4.3587
H	1.3118	-5.1491	2.4860
H	-1.8745	0.1181	1.1845
H	-1.6157	1.4588	0.3600
H	-0.2481	0.7220	2.7419
H	0.1100	2.0294	1.8918
H	-2.3598	1.5700	3.2731
H	-2.1610	2.8066	2.2754
H	-0.3956	3.6070	3.6821
H	-1.7993	3.5665	4.4499
H	-0.7132	2.4195	4.7088
H	4.5245	4.6500	3.7748
H	-0.3082	6.1481	-6.1321
C	0.9733	2.3212	-1.7268
C	1.9998	3.3383	-1.7349
C	2.8057	3.0999	-0.6889
C	2.3261	1.9153	-0.0274
C	2.8464	1.3735	1.1482
C	2.3696	0.2265	1.7624
C	2.8161	-0.2503	3.0470
H	-1.1714	4.7569	-2.4296
H	-1.2874	6.4443	-4.0313
C	3.9630	2.1248	1.8038
C	5.3058	1.7593	1.5998
C	6.3231	2.4657	2.2016
C	6.0463	3.5362	3.0247
C	4.7253	3.9060	3.2206
C	3.7013	3.2054	2.6208
H	-4.9806	-1.3395	-0.9651
H	-7.0141	-2.2685	-1.7264
H	-6.9817	-3.9067	-3.3793
H	-4.9543	-4.6521	-4.2362
H	-2.9539	-3.7319	-3.4965
Rh	0.1704	-0.2306	-0.2852
C	0.3071	4.2397	-5.8016
C	2.0854	-1.3468	3.3510
C	1.1945	-1.5794	2.2279
C	0.3464	-2.6672	2.0987
C	-0.4691	-2.9243	0.9885
C	-1.2198	-4.1220	0.7594
C	-1.9985	-3.9081	-0.3294
C	-1.7396	-2.5603	-0.7719
C	-2.4893	-1.8668	-1.7257
C	-2.1764	-0.5782	-2.1930
C	-2.9418	0.1441	-3.1860
C	-2.2589	1.2840	-3.4450
C	-1.0831	1.2869	-2.6104
C	-0.1228	2.2866	-2.5916
C	0.2569	-3.5947	3.2686
C	-0.4234	-3.1815	4.4157
C	-0.5044	-4.0006	5.5194
C	0.0992	-5.2517	5.5036
C	0.7675	-5.6677	4.3740
C	0.8491	-4.8501	3.2602
C	-3.7105	-2.5343	-2.2476
C	-0.2164	3.3860	-3.6003
C	0.3319	3.2039	-4.8547
C	-1.1743	0.7610	0.9068
C	-0.6240	1.4169	2.1444
C	-1.6931	2.2013	2.9022
C	-1.0980	3.0219	4.0358
C	-0.2891	5.4460	-5.4915
H	2.0866	4.0462	-2.3617
H	3.5586	3.6200	-0.4337
H	3.4996	0.1340	3.5837
N	1.2124	1.4501	-0.6924
C	-0.8031	4.6125	-3.2949
C	-0.8577	5.6237	-4.2423
H	5.5128	1.0182	1.0415
H	7.2244	2.2114	2.0472
H	6.7505	4.0129	3.4506
H	2.8019	3.4697	2.7755
H	0.6999	4.1112	-6.6552
H	0.7288	2.3704	-5.0775
C	-4.9913	-2.0142	-1.6361
C	-6.1861	-2.5632	-2.0886
C	-6.1668	-3.5369	-3.0606
C	-4.9677	-3.9717	-3.5735
C	-3.7680	-3.4170	-3.1199
*