! UKS B3LYP ma-def2-SVP OPT NumFreq
%basis
NewGTO Rh "ma-def2-TZVP" end
end 

%scf
  maxiter 200
end

%pal 
	nprocs 16
end
* xyz 0 1
H	-1.5626	2.1832	-4.4145
C	0.8407	-2.2763	-1.9190
H	2.2206	3.7591	6.3899
H	-0.6784	-0.0129	-5.1368
C	0.8258	-0.2888	4.1637
C	0.4731	0.4346	2.9701
H	-1.4563	-2.7479	-4.6655
C	0.0399	1.7674	2.9381
H	-1.2238	-3.6547	-6.8111
C	-0.3684	2.4349	1.7792
H	0.8784	-3.8403	-7.7776
C	1.4060	-3.6039	-1.9121
C	-0.6923	3.8387	1.7151
C	-1.0470	4.1156	0.4434
C	1.6921	-3.9093	-0.6276
C	-0.9457	2.8870	-0.3061
C	1.3235	-2.7678	0.1831
C	-1.2348	2.7618	-1.6652
C	1.4447	-2.7072	1.5685
C	1.1010	-1.5924	2.3494
C	1.2172	-1.5282	3.7833
H	2.7671	-3.0312	-6.6457
H	2.5366	-2.0918	-4.5240
C	0.0896	2.5511	4.2145
H	-0.3824	4.3973	-3.6143
H	-1.4543	6.2092	-4.6440
H	-3.6063	6.8181	-3.9883
C	-1.0758	3.0252	4.8174
C	-1.0162	3.7358	6.0067
C	0.2118	4.0018	6.5965
C	1.9852	-3.9191	2.2741
C	-1.1603	1.5278	-3.8573
C	3.3264	-4.2676	2.1589
C	-1.9064	3.9212	-2.3400
C	-0.6893	0.3257	-4.2492
C	3.7983	-5.4238	2.7757
C	-1.8358	-0.6884	0.1137
C	2.9518	-6.2274	3.5156
C	1.6265	-5.8715	3.6675
C	-2.3346	-0.9072	1.5206
C	-3.7732	-1.4559	1.5338
C	1.1407	-4.7262	3.0402
N	-0.3495	0.4748	-1.9737
C	-3.8278	5.3758	-2.5705
N	0.8081	-1.7806	-0.6307
C	-3.1960	4.2931	-1.9644
N	0.6300	-0.3859	1.8680
N	-0.4864	1.8811	0.5171
C	1.3791	3.5633	5.9951
C	1.3165	2.8369	4.8163
C	0.5118	-2.3083	-4.3866
C	-0.5979	-2.7924	-5.0688
C	-0.4579	-3.3467	-6.3413
C	0.7850	-3.4471	-6.9182
C	1.9087	-2.9713	-6.2428
C	1.7696	-2.4099	-4.9849
C	-1.2606	4.6431	-3.3465
C	-1.8974	5.7215	-3.9585
C	-3.1751	6.0825	-3.5691
H	0.7910	0.0424	5.0530
H	-0.6615	4.4559	2.4359
H	-1.3133	4.9622	0.1042
H	1.5510	-4.1593	-2.6687
H	0.2247	-4.4915	3.1343
H	2.0666	-4.7243	-0.3144
H	1.5133	-2.2253	4.3559
H	-1.9173	2.8588	4.4098
H	-1.8160	4.0407	6.4173
H	0.2515	4.4852	7.4141
H	-2.4429	-0.0503	-0.3379
H	3.9195	-3.7182	1.6604
H	-1.8915	-1.5481	-0.3750
H	4.7133	-5.6636	2.6863
H	-2.3078	-0.0503	2.0145
H	3.2807	-7.0229	3.9192
H	-1.7365	-1.5448	1.9839
H	-4.7031	5.6296	-2.3011
H	1.0473	-6.4059	4.1983
H	-3.6480	3.8031	-1.2890
H	-4.3782	-0.7943	1.1392
H	-4.0454	-1.6376	2.4568
H	-3.8109	-2.2856	1.0139
Rh	0.0791	0.0202	-0.0437
C	-0.9397	1.6364	-2.4332
H	2.1203	2.5300	4.4125
C	-0.2055	-0.3486	-3.0705
C	0.3648	-1.6264	-3.0564
*