! UKS B3LYP ma-def2-SVP OPT NumFreq
%basis
NewGTO Ir "ma-def2-TZVP" end
end 

%scf
  maxiter 200
end

%pal 
	nprocs 16
end
* xyz 0 1
C	-1.1663	2.8238	1.3120
N	0.3946	-0.6857	-2.0821
N	-1.7687	-1.3813	-0.3465
N	-0.3802	-0.1969	1.8608
N	1.7964	0.4897	0.1230
H	-6.7524	-1.1397	3.7410
O	-1.6309	1.4398	-1.5754
H	-7.5832	-2.4889	5.4605
H	-6.4870	-2.8660	6.5168
H	3.7704	4.1090	5.0097
H	-6.9830	-3.9370	5.4844
H	5.0446	3.7629	6.9484
C	5.9516	1.6302	-4.6332
C	6.0154	0.5189	-3.8044
C	7.1306	2.0586	-5.4424
H	1.9868	-0.4202	-4.8287
H	-0.0914	-1.5845	-5.1000
H	-3.9789	-3.1040	-1.8396
H	-4.4940	-2.7946	0.5226
H	-2.0587	-0.3067	4.5542
H	1.3765	5.1726	0.0035
H	0.0743	0.8137	4.8383
H	-1.2782	4.2005	2.8237
H	4.1511	1.9048	1.6936
H	4.6270	1.6576	-0.6911
H	-3.7673	-1.3081	-4.2325
H	-4.8176	-2.5072	-5.9056
H	-2.0810	-5.3466	-5.6245
H	-1.0364	-4.1567	-3.9719
H	-3.7583	-5.6212	-7.2503
H	-4.2409	-4.2628	-7.8690
H	-5.1389	-5.0134	-6.8249
H	-5.0930	-0.4129	2.2960
H	-4.3171	-3.8491	5.2414
H	-2.6431	-3.1479	3.8514
H	2.6720	-0.3378	4.6588
H	3.8992	0.4109	6.4377
H	2.5085	3.3968	3.2316
H	5.7131	2.3478	7.0475
H	4.4176	2.6609	7.8729
H	2.8825	2.4192	-3.9340
H	4.6371	3.0032	-5.2269
H	5.0278	-0.6307	-2.5333
H	0.7742	3.2796	-1.1961
H	-1.7910	2.2197	1.6410
Ir	-0.0294	-0.3712	-0.1302
C	-5.9204	-1.5534	3.7615
C	1.5098	-0.2188	-2.7617
C	-5.7066	-2.5749	4.6453
C	1.3721	-0.5996	-4.1547
C	0.2389	-1.2367	-4.3017
C	-0.4071	-1.3063	-3.0157
C	-6.7893	-3.0070	5.6161
C	-1.6130	-1.9214	-2.7423
C	-2.2266	-1.9617	-1.5164
C	-3.4627	-2.6317	-1.2263
C	-3.7516	-2.4614	0.0722
C	-2.6778	-1.6578	0.6421
C	-2.5927	-1.2806	1.9694
C	-1.5167	-0.5941	2.5223
C	-1.4171	-0.1749	3.8927
H	6.8070	0.0320	-3.7536
C	-0.2448	0.4347	4.0502
C	0.4270	0.4018	2.8126
H	6.9044	2.8421	-5.9490
C	1.6923	0.9272	2.5585
H	7.3803	1.3501	-6.0415
C	2.3070	0.9565	1.3109
H	7.8651	2.2563	-4.8567
C	3.5913	1.5148	1.0609
C	0.3800	3.4554	-0.3732
C	3.8544	1.3830	-0.2526
C	2.7202	0.7405	-0.8511
C	0.7159	4.5959	0.3143
C	2.5970	0.4128	-2.1963
C	0.0475	4.8449	1.4605
C	-2.3162	-2.6353	-3.8876
C	-0.8673	4.0028	2.0125
C	-3.4258	-2.1319	-4.4972
C	-4.0483	-2.8495	-5.5119
C	-3.5523	-4.0468	-5.9423
C	-2.4337	-4.5301	-5.3508
C	-1.8168	-3.8198	-4.3495
C	-4.2364	-4.8066	-7.0762
C	-3.6788	-1.7182	2.8882
C	-4.9206	-1.1122	2.8828
C	-4.4839	-3.1498	4.6489
C	-3.4762	-2.7360	3.8048
C	2.4660	1.4489	3.7355
F	0.3319	6.0019	2.1418
C	2.8937	0.5629	4.7191
C	3.6405	1.0132	5.7761
C	4.0201	2.3350	5.8830
C	3.5622	3.2064	4.9329
C	2.7997	2.7835	3.8664
C	4.8789	2.8220	7.0465
C	3.7380	0.8027	-3.0712
C	3.6652	1.9176	-3.8985
C	4.7334	2.2746	-4.6543
C	4.9461	0.1272	-3.0652
C	-0.9020	1.3519	-0.6351
C	-0.5202	2.5876	0.1383
*