! UKS B3LYP ma-def2-SVP OPT NumFreq
%basis
NewGTO Ir "ma-def2-TZVP" end
end 

%scf
  maxiter 200
end

%pal 
	nprocs 16
end
* xyz 0 1
C	0.4561	2.7211	-0.2190
C	1.0026	3.0571	-1.4377
H	-4.2075	1.9026	-1.7942
C	0.6007	4.1936	-2.1060
H	-4.6388	1.7579	0.5890
H	-4.6478	3.0874	5.2700
H	-2.8344	2.4566	4.0141
H	-2.7734	-0.4045	-4.7043
H	-7.8988	1.6203	5.1765
H	-4.0347	0.3193	-6.4753
H	-6.9458	2.1135	6.3187
H	-3.7434	4.0310	-5.1793
H	-7.3647	3.0928	5.1678
H	-2.4493	3.3126	-3.4131
H	-5.0464	3.6843	-7.0920
N	0.3838	-0.1757	-1.9380
H	-4.5519	2.4995	-7.9901
H	-5.8053	2.3136	-7.0694
H	-5.0735	-0.4009	2.3370
N	1.8100	-1.2390	0.3277
H	-6.8486	0.2693	3.5824
O	1.7129	1.6364	1.3562
H	0.1467	-1.2730	5.0743
H	2.0268	-0.4277	-4.6291
H	-0.1141	0.6588	-4.9550
H	4.0639	-2.8491	1.8644
H	4.5573	-2.6186	-0.5085
H	-0.6245	5.7430	-1.9027
H	-1.5889	5.2569	0.1421
H	-0.8075	3.3198	1.1763
H	1.1494	-3.9053	4.0306
H	2.1781	-4.9668	5.7900
H	4.7945	-2.0021	6.0138
H	3.7726	-0.9531	4.2778
H	5.0485	-3.8159	7.5386
H	3.6551	-4.3860	7.9730
H	4.5585	-5.1955	6.9779
C	-1.3664	-0.3526	4.1121
C	-0.4642	0.3622	-2.8871
C	-1.7255	0.9019	-2.6470
C	-2.3285	0.9984	-1.4053
C	-3.6316	1.5488	-1.1541
C	-3.8721	1.4648	0.1527
C	-2.7316	0.8411	0.7674
H	5.0858	-0.3580	-2.3869
C	-2.6006	0.5802	2.1260
H	6.7423	-1.0800	-3.7870
C	-1.4917	-0.0256	2.7211
H	4.3733	-3.9660	-5.1076
H	2.6761	-3.2048	-3.7743
H	6.5109	-3.8124	-6.0695
H	7.0732	-2.3523	-6.1577
H	7.5904	-3.3263	-5.0431
H	1.6519	2.5084	-1.8153
H	0.9496	4.4277	-2.9339
C	-6.0368	0.7125	3.6781
C	-5.9464	1.7418	4.5696
C	-2.4866	1.3826	-3.8419
C	-4.7348	2.3798	4.6716
C	-2.9665	0.5016	-4.7873
C	-3.6417	2.0045	3.9177
C	-3.7275	0.9376	-5.8512
C	-7.1490	2.1832	5.3833
C	-4.0369	2.2493	-6.0091
C	-3.5537	3.1250	-5.0909
C	-2.7756	2.6889	-4.0198
C	-4.9448	2.7318	-7.1459
C	-3.7434	0.9519	3.0133
Ir	0.0326	-0.2683	0.0782
C	-4.9730	0.3139	2.9237
C	1.5198	-0.6064	-2.5987
C	1.3933	-0.2651	-3.9676
C	-0.1966	-0.9620	4.2663
C	0.2122	0.3265	-4.1493
C	0.4448	-1.0657	3.0069
C	1.6824	-1.6661	2.7654
C	2.2899	-1.7608	1.5206
C	3.5320	-2.4113	1.2396
C	3.8087	-2.2898	-0.0629
C	2.7190	-1.5464	-0.6438
C	2.5993	-1.2444	-2.0089
C	-0.3535	4.9674	-1.4649
C	2.3656	-2.3220	3.9209
C	-0.9430	4.7101	-0.2447
C	1.9004	-3.5175	4.4192
C	-0.4698	3.5503	0.3403
C	2.5169	-4.1573	5.4778
C	3.6235	-3.6051	6.0732
C	4.0605	-2.4042	5.6082
C	3.4474	-1.7769	4.5637
C	4.2830	-4.3163	7.2492
N	-1.8045	0.5784	-0.2044
N	-0.3693	-0.4759	2.0624
C	3.7048	-1.7090	-2.9150
H	-1.9875	-0.1721	4.7790
C	4.9289	-1.0835	-2.9459
C	5.9214	-1.5178	-3.7891
C	5.7328	-2.5847	-4.6370
C	4.5167	-3.2155	-4.5758
C	3.5016	-2.7777	-3.7583
C	6.8259	-3.0618	-5.5606
C	0.9270	1.5184	0.4828
*