! UKS B3LYP ma-def2-SVP OPT NumFreq
%basis
NewGTO Ir "ma-def2-TZVP" end
end 

%scf
  maxiter 200
end

%pal 
	nprocs 16
end
* xyz 0 1
H	-0.9713	0.3149	-5.0549
H	-3.0454	-0.6135	-4.1432
H	-4.7712	-1.8810	0.7230
H	-3.7698	-1.9456	2.9386
H	1.1542	-1.2964	4.8264
H	3.2834	-0.5751	3.8728
H	4.8624	1.2358	-0.8710
H	3.7877	1.5234	-3.0389
H	-4.9215	0.5444	-2.3897
H	-6.9865	0.0910	-3.2809
H	-6.4767	-3.7649	-2.4859
H	-4.3989	-3.3377	-1.6272
H	-8.4610	-3.1494	-3.5834
H	-8.9726	-1.7404	-3.1256
H	-8.2941	-1.9100	-4.5272
H	-1.4903	-3.6581	4.0435
H	-2.2514	-4.3757	6.0752
H	-1.5948	0.0620	5.3128
H	4.2242	2.0096	2.8551
H	6.3955	2.2916	3.6359
H	7.5784	-0.8561	1.5139
H	5.4254	-1.1212	0.6870
H	0.2079	2.7628	-4.6365
H	1.0240	3.7670	-6.5330
H	3.7877	0.9173	-6.8213
H	2.9899	-0.0589	-4.9065
H	3.9014	2.7047	-8.3778
H	2.4820	3.2452	-8.7597
H	3.4062	4.0780	-7.8079
H	-2.6035	1.5609	-0.6770
H	-3.0051	3.9431	-0.1582
H	0.4922	4.5914	1.6269
H	8.6054	1.6433	3.8469
Ir	-0.0005	-0.1671	-0.0470
H	8.8419	0.0994	3.7192
C	-0.2194	0.2877	-3.0760
H	9.2124	1.0503	2.5279
C	-1.1345	0.1135	-4.1622
C	-2.2807	-0.3952	-3.6588
C	-2.1047	-0.5366	-2.2316
C	-2.4091	-2.5807	6.9329
C	-3.0693	-1.0125	-1.3473
C	-2.2239	-1.3048	6.6673
C	-2.8987	-1.1699	0.0238
C	-3.8982	-1.6439	0.9386
C	-2.9354	-3.0435	8.2925
C	-3.3444	-1.6833	2.1535
C	-1.9781	-1.2505	2.0407
C	-1.0483	-1.2308	3.0647
C	0.3014	-0.8701	2.9255
C	1.2954	-0.9957	3.9584
C	2.4654	-0.5975	3.4329
C	2.2270	-0.2125	2.0665
C	3.2008	0.2372	1.1552
C	2.9863	0.5079	-0.1744
C	3.9784	1.0381	-1.0783
C	3.3824	1.1927	-2.2704
C	2.0198	0.7655	-2.1631
C	1.0955	0.7440	-3.1927
C	-4.4227	-1.3357	-1.9082
C	-5.2241	-0.3343	-2.4129
C	-6.4675	-0.6060	-2.9502
C	-6.9535	-1.9175	-3.0029
C	-6.1631	-2.8889	-2.4844
C	-4.9142	-2.6360	-1.9553
C	-8.2904	-2.2051	-3.6152
C	-1.5105	-1.7076	4.4197
C	-1.6829	-3.0295	4.7011
C	-2.1340	-3.4651	5.9296
C	-1.7489	-0.8477	5.4353
C	4.5854	0.4086	1.6883
C	4.8917	1.4260	2.5752
C	6.2030	1.5908	3.0568
C	7.2061	0.7290	2.6811
C	6.9072	-0.2743	1.7913
C	5.6033	-0.4373	1.2907
C	1.5430	1.2686	-4.5150
C	0.9525	2.3984	-5.0555
C	1.4385	3.0035	-6.1992
C	2.5388	2.4761	-6.8541
H	-1.6077	5.3408	0.8682
C	3.0798	1.3145	-6.3685
C	2.5957	0.7243	-5.2168
C	3.1385	3.1928	-8.0629
C	-0.5660	1.7810	0.3089
C	-2.0075	2.1248	-0.2413
C	-2.1890	3.5806	0.1021
C	-1.3454	4.4584	0.7370
C	-0.0965	4.0265	1.1802
C	0.2097	2.7056	0.9137
C	8.5925	0.8957	3.2437
N	-0.8301	-0.1226	-1.8969
N	-1.7324	-0.9189	0.7222
N	0.8865	-0.3933	1.7695
N	1.7814	0.3927	-0.8504
O	0.6114	-2.3025	-0.4462
F	1.3834	2.4611	1.3860
H	-2.4183	-0.6800	7.3275
H	-3.1005	-2.2800	8.8499
H	-3.7515	-3.5325	8.1691
H	-2.2825	-3.6103	8.7104
*