! UKS B3LYP ma-def2-SVP OPT NumFreq
%basis

end 

%scf
  maxiter 200
end

%pal 
	nprocs 16
end
* xyz 0 1
C	4.0651	-2.5617	-1.2419
C	4.2718	-3.8719	-0.8767
C	5.4601	-4.5218	-1.1658
C	6.4755	-3.8895	-1.8378
C	6.2591	-2.5957	-2.2243
C	5.0745	-1.9224	-1.9298
C	7.8011	-4.5746	-2.1166
N	1.5030	-0.8795	0.9915
H	1.1554	-0.5581	7.8078
H	0.9671	-4.0479	8.4834
H	1.9130	-2.8878	8.9467
Co	0.1127	0.0561	0.0168
H	0.6865	-1.4989	-4.7414
H	-3.0374	0.2114	-4.3341
H	-3.7983	0.5034	-6.4953
H	-0.1466	1.4489	-7.6626
H	0.6350	1.1275	-5.5286
H	-1.7884	1.4372	-9.2999
H	-2.9202	0.3779	-9.0602
H	-2.5743	-0.2930	-0.9475
H	-4.4733	-0.9288	0.2557
H	-3.6096	-1.9001	1.1327
H	-3.4008	-0.3505	1.2423
H	-2.2472	-2.2942	-2.0817
H	-2.8819	-3.0907	-0.8887
H	-3.7698	-2.1265	-1.7490
C	-0.3255	0.2806	2.9695
C	0.6585	-0.6403	3.2925
H	-1.9998	2.9363	-3.5560
H	-2.5460	4.0894	-1.4764
C	0.9185	-1.3640	-3.8498
C	1.0557	-3.0966	8.5699
C	0.2573	-0.4889	-2.9214
C	-0.6486	0.4999	-3.2699
C	-1.0862	1.4489	-2.3621
H	-3.1835	1.8923	-8.7499
H	-4.4896	2.9011	0.7407
H	-5.9183	4.5844	1.3230
C	-1.1160	0.6313	-4.6890
H	-2.8626	6.8131	2.4155
C	-2.4378	0.4530	-5.0026
C	-2.8969	0.6290	-6.3058
H	-1.4072	5.1087	1.8566
C	-2.0340	0.9867	-7.3149
H	-6.4191	6.6747	2.1824
C	-0.7403	1.1826	-6.9975
H	-5.4214	7.1392	3.2998
C	-0.2687	0.9996	-5.7077
H	-5.3374	7.7632	1.8639
C	-2.5268	1.1920	-8.7362
C	-1.4278	1.8430	1.8647
C	-1.1967	-1.3488	0.1583
C	-1.8236	1.9298	3.2406
C	-2.5690	-1.1353	-0.4482
C	-3.6073	-1.0731	0.6449
C	-2.8957	-2.2625	-1.3752
N	-0.5192	0.8149	1.6997
N	0.8247	-0.6303	-1.6634
N	-0.9059	1.3775	-0.9822
O	-0.9618	-2.3177	0.7486
H	-1.2534	0.7627	4.8133
C	-1.7896	2.6477	-2.6978
C	-2.0936	3.2800	-1.5560
C	-1.5912	2.4753	-0.4765
C	-1.8779	2.6876	0.8647
H	0.9874	0.4577	5.7483
H	0.7225	-4.1288	6.1382
H	0.5452	-3.1400	4.0733
H	0.3638	-2.7611	9.1442
C	-2.7939	3.8149	1.2382
C	-4.1423	3.6905	1.0875
C	-5.0041	4.7064	1.4372
C	-4.5511	5.8782	1.9470
C	-3.2051	6.0143	2.0835
C	-2.3223	4.9891	1.7407
C	-5.5208	6.9632	2.3619
H	3.1457	-1.8719	3.5474
H	4.3408	-2.2754	1.4581
H	2.5464	-2.5452	-3.5527
C	-1.1699	0.9586	3.9078
H	-2.4190	2.5433	3.6052
H	3.5991	-4.3306	-0.4258
H	5.5719	-5.4062	-0.8990
H	6.9233	-2.1499	-2.6987
H	4.9648	-1.0391	-2.1980
H	7.7768	-5.4707	-1.7730
H	7.9553	-4.6004	-3.0639
H	8.5092	-4.0878	-1.6892
C	0.7371	-1.2279	4.6717
C	0.9265	-0.4678	5.8130
C	1.0238	-1.0848	7.0518
C	0.9336	-2.4479	7.1977
C	0.7672	-3.2021	6.0695
C	0.6654	-2.6051	4.8244
C	1.6013	-1.0438	2.3587
C	2.8432	-1.6690	2.6918
C	3.4908	-1.9071	1.5440
C	2.6377	-1.4895	0.4743
C	2.8203	-1.8180	-0.8637
C	1.8888	-1.4872	-1.8424
C	1.9304	-1.9482	-3.1941
*