! UKS B3LYP ma-def2-SVP OPT NumFreq
%basis
NewGTO Rh "ma-def2-TZVP" end
end 

%scf
  maxiter 200
end

%pal 
	nprocs 16
end
* xyz 0 1
C	-5.5666	-1.9375	1.2529
C	0.7729	-0.7587	0.7359
C	1.9310	-0.4355	1.1627
C	2.8701	-1.1784	1.9818
C	2.6535	-2.4632	2.4057
C	4.0584	-0.5777	2.3568
N	-1.5874	-1.4614	-0.5362
N	0.4940	-0.2196	-2.0485
C	1.4628	0.5528	-2.6639
C	2.1276	1.6350	-2.0912
C	1.7284	2.2626	-0.8923
C	2.4107	3.3113	-0.2349
C	1.6875	3.6734	0.8432
C	0.5234	2.8339	0.8594
C	-0.5048	2.8956	1.8026
C	-1.5087	1.9663	1.9361
C	-2.6285	2.0937	2.8442
C	-3.3616	0.9739	2.7199
H	-7.4407	-2.5557	1.3276
H	-7.9039	-3.1042	4.8365
H	-8.7682	-2.4243	3.7186
H	-8.2933	-3.9088	3.5474
C	3.3888	2.1044	-2.7459
C	3.5800	3.4253	-3.1057
C	4.4387	1.2274	-2.9567
C	-0.4718	4.0502	2.7687
C	-0.6397	5.3376	2.3263
C	-0.5412	6.3944	3.2026
H	3.4305	-4.0080	3.3951
H	5.4146	-3.0157	3.9548
H	5.7995	-0.8740	3.3047
N	0.5679	1.9395	-0.1941
N	-1.6257	0.7889	1.2385
C	-6.7738	-2.5530	3.1972
C	-6.6942	-2.3733	1.8520
C	-8.0550	-3.0438	3.8904
H	-0.1460	4.7798	5.9102
H	-0.2468	2.9707	4.4747
H	-0.2450	8.2262	4.9803
H	-0.8785	7.3841	6.1407
H	0.6751	7.3867	5.9330
C	3.5982	-3.1323	3.1287
C	4.7756	-2.5490	3.4666
C	4.9955	-1.2844	3.0792
H	4.8900	4.7489	-3.9094
C	-0.2998	6.2133	4.5498
H	6.3403	1.0651	-3.6264
C	-0.2384	4.9313	4.9972
C	-0.3082	3.8357	4.1388
H	7.1226	4.4150	-4.5014
H	7.8508	3.3060	-3.6649
C	-0.1755	7.4136	5.4889
H	7.3982	3.0069	-5.1358
H	-3.5131	-3.7774	0.4710
H	-2.0661	-4.4935	-1.3464
H	0.9903	-1.7658	-4.7830
H	2.3466	0.3021	-4.5853
H	1.7264	-3.8377	-3.0505
H	2.0333	-5.7795	-4.2741
H	-1.8298	-5.9029	-5.0540
H	-2.1608	-3.9477	-3.8876
H	-0.5016	-7.6570	-5.8988
H	0.9433	-7.1890	-6.2866
H	0.7132	-8.0191	-4.9764
H	4.3368	0.3289	-2.7393
H	-3.7128	-1.7068	3.8823
H	-5.7058	-2.3961	4.8717
H	-5.5535	-1.8141	0.3298
H	0.4892	-1.6089	0.9845
H	2.2193	0.4107	0.9086
H	1.8519	-2.8842	2.1989
C	4.7931	3.8612	-3.6532
H	4.2255	0.3061	2.1205
C	5.8488	2.9855	-3.8187
Rh	-0.5124	0.2448	-0.3610
C	5.6516	1.6753	-3.4902
C	-2.5915	-1.9066	0.3132
C	-2.8837	-3.2517	0.0334
C	7.1743	3.4723	-4.3260
C	-2.0972	-3.6419	-0.9740
C	-1.3040	-2.5088	-1.3776
C	-0.4644	-2.4484	-2.4765
C	0.2888	-1.3300	-2.8277
C	1.0159	-1.1878	-4.0541
C	1.7600	-0.0345	-3.9483
H	3.2188	3.6868	-0.5011
H	1.9015	4.3386	1.4575
C	-2.7443	0.1317	1.7181
H	-2.8083	2.8138	3.4059
C	-3.1753	-1.1194	1.3234
H	-4.1335	0.7728	3.1984
C	-0.2666	-3.6929	-3.3200
C	0.9958	-4.2494	-3.4515
C	1.1788	-5.4228	-4.1848
C	0.1313	-6.0491	-4.7665
C	-1.1038	-5.4872	-4.6489
C	-1.3067	-4.3138	-3.9404
C	0.3409	-7.3512	-5.5565
H	2.8897	4.0368	-2.9817
H	-0.8233	5.4986	1.4289
H	-0.6410	7.2593	2.8759
C	-4.4082	-1.6706	2.0031
C	-4.4643	-1.8610	3.3576
C	-5.6653	-2.2902	3.9488
*