! UKS B3LYP ma-def2-SVP OPT NumFreq
%basis

end 

%scf
  maxiter 200
end

%pal 
	nprocs 16
end
* xyz 0 1
C	0.3803	-2.4422	-5.1739
C	0.5916	-2.7809	-6.4986
C	1.2937	-1.9119	-7.3151
C	1.7895	-0.7246	-6.7956
C	1.5757	-0.4052	-5.4791
C	1.1444	-3.3848	-9.1631
H	-0.8491	4.6572	-2.6898
H	-1.8553	6.5484	-3.5445
O	1.5702	-2.1511	-8.6308
C	7.0066	-6.2921	2.9316
Co	-0.0356	-0.0234	0.0391
H	0.4983	-1.0115	4.9773
H	1.8669	-2.7098	3.8889
H	3.1347	-3.8271	-1.0863
H	2.4187	-3.0015	-3.2713
H	-2.5171	0.2879	5.0325
H	-2.6875	0.7206	7.2858
H	1.6240	-4.9312	2.2726
H	3.1277	-6.5102	2.9866
H	4.6359	-2.6411	1.0575
O	5.6160	-6.5449	2.8738
H	-2.8510	0.3662	-0.3502
H	-3.4014	-0.4498	1.7635
H	-3.8868	-1.7998	1.1318
C	-2.3209	6.0000	-2.9553
H	-3.6215	-2.1782	-1.3532
H	-2.9516	-1.0609	-2.2249
C	-0.6014	0.9159	3.2783
C	0.1261	-0.2461	3.0398
C	0.6483	-1.0946	4.0634
C	1.3933	-2.0300	3.4667
C	1.3251	-1.7937	2.0585
C	2.0213	-2.5389	1.1118
C	1.9071	-2.3199	-0.2456
C	2.5499	-3.1208	-1.2422
C	2.1573	-2.6700	-2.4424
C	1.2584	-1.5828	-2.2034
C	0.6021	-0.8897	-3.2129
C	-0.2665	0.1601	-2.9565
H	-2.2925	4.3957	1.1501
H	-1.8502	3.3977	3.3272
C	-0.8199	1.2919	4.7190
C	-1.8643	0.8014	5.4529
C	-1.9654	1.0557	6.8054
H	-4.2817	8.9627	-4.2225
H	-3.4825	7.7345	-4.7814
H	-2.8755	8.6059	-3.6281
H	0.6359	2.8866	7.1306
C	2.9747	-3.6017	1.5818
H	0.7709	2.4708	4.8832
C	2.5361	-4.7806	2.1658
H	-0.4323	2.8565	10.3992
C	3.4373	-5.7292	2.5896
H	-0.2358	3.6833	9.0825
C	4.8010	-5.5363	2.4314
H	0.6586	2.4262	9.3592
C	5.2409	-4.3792	1.8780
C	4.3217	-3.4233	1.4471
C	-1.5594	-1.1983	0.0666
C	-2.9402	-0.6004	-0.2156
C	-3.8041	-0.8548	0.9905
C	-3.5327	-1.2308	-1.4800
N	-0.8935	1.5257	0.9130
N	0.5308	-0.6896	1.7931
N	1.1206	-1.3515	-0.8537
N	-0.4837	0.7366	-1.7139
C	-1.4774	2.6350	0.3044
O	-1.4255	-2.3401	0.3169
C	-1.9062	3.5628	1.3049
C	-1.6545	3.0228	2.4998
C	-1.0285	1.7572	2.2690
H	-4.6742	-0.4751	0.8475
H	-4.3960	-0.8499	-1.6541
C	-1.6454	1.8657	-3.3676
C	-1.2955	1.8301	-1.9816
C	-3.6119	6.3110	-2.5883
C	-1.6964	2.7819	-1.0529
C	-3.6864	8.2455	-3.9933
C	-1.0031	1.8066	7.4490
C	0.0015	2.3454	6.7215
C	0.0787	2.0875	5.3716
C	-0.2176	2.8034	9.4659
O	-4.3085	7.4022	-3.0288
C	-2.3778	4.0148	-1.5698
C	-1.7215	4.8585	-2.4398
H	-1.0612	0.6182	-4.8665
O	-1.1676	1.9825	8.8075
H	-5.1496	5.6854	-1.4618
H	-4.1617	3.7822	-0.6534
H	-0.0961	-3.0256	-4.6285
H	0.2656	-3.5837	-6.8360
H	2.2686	-0.1436	-7.3415
H	1.9114	0.3928	-5.1407
H	1.3981	-3.4402	-10.0866
H	0.1891	-3.4523	-9.0891
H	1.5535	-4.1032	-8.6754
H	6.1531	-4.2237	1.7854
H	7.4615	-7.0743	3.2534
H	7.1747	-5.5580	3.5280
H	7.3296	-6.0715	2.0550
C	-1.0168	0.8423	-3.9648
H	-2.2060	2.4828	-3.7788
C	-4.2801	5.4769	-1.7179
C	-3.6850	4.3402	-1.2250
C	0.8575	-1.2634	-4.6386
*