! UKS B3LYP ma-def2-SVP OPT NumFreq
%basis

end 

%scf
  maxiter 200
end

%pal 
	nprocs 16
end
* xyz 0 1
N	0.9710	-1.6169	-0.0099
H	-1.5080	4.7283	-0.5566
H	-1.0053	-5.3951	0.9819
C	-3.2191	0.8365	0.5241
H	-1.6363	-7.5788	0.4479
C	-4.6214	1.2152	0.8810
H	-2.2240	-8.1098	-1.7293
C	-5.6097	1.2446	-0.0877
H	-2.1658	-6.4735	-3.3865
C	-6.9105	1.6194	0.2273
H	-1.5408	-4.2913	-2.8524
C	-7.2227	1.9634	1.5108
H	-3.4918	-3.5932	-0.0664
C	-6.2533	1.9325	2.4933
H	-4.7283	-1.5080	0.5566
Ni	-0.0000	0.0000	0.0000
C	-4.9557	1.5592	2.1733
C	-0.8365	-3.2191	-0.5241
H	1.0053	5.3951	0.9819
C	-2.3045	1.8033	0.2218
C	-1.2152	-4.6214	-0.8810
H	1.6363	7.5788	0.4479
C	-2.7162	3.1353	-0.0099
C	-1.2446	-5.6097	0.0877
H	2.2240	8.1098	-1.7293
C	-1.5751	3.7998	-0.3673
C	-1.6194	-6.9105	-0.2273
H	2.1658	6.4735	-3.3865
C	-0.4818	2.8430	-0.4083
C	-1.9634	-7.2227	-1.5108
H	1.5408	4.2913	-2.8524
N	-0.9710	1.6169	-0.0099
C	-1.9325	-6.2533	-2.4933
H	3.4918	3.5932	-0.0664
C	-1.5592	-4.9557	-2.1733
H	4.7283	1.5080	0.5566
H	5.3951	-1.0053	-0.9819
C	0.8365	3.2191	-0.5241
C	-1.8033	-2.3045	-0.2218
H	7.5788	-1.6363	-0.4479
C	1.2152	4.6214	-0.8810
C	-3.1353	-2.7162	0.0099
H	8.1098	-2.2240	1.7293
C	1.2446	5.6097	0.0877
C	-3.7998	-1.5751	0.3673
H	6.4735	-2.1658	3.3865
C	1.6194	6.9105	-0.2273
C	-2.8430	-0.4818	0.4083
H	4.2913	-1.5408	2.8524
C	1.9634	7.2227	-1.5108
N	-1.6169	-0.9710	0.0099
H	3.5932	-3.4918	0.0664
C	1.9325	6.2533	-2.4933
H	1.5080	-4.7283	-0.5566
C	1.5592	4.9557	-2.1733
C	3.2191	-0.8365	0.5241
C	1.8033	2.3045	-0.2218
C	4.6214	-1.2152	0.8810
C	3.1353	2.7162	0.0099
C	5.6097	-1.2446	-0.0877
C	3.7998	1.5751	0.3673
C	6.9105	-1.6194	0.2273
C	2.8430	0.4818	0.4083
C	7.2227	-1.9634	1.5108
N	1.6169	0.9710	0.0099
C	6.2533	-1.9325	2.4933
H	-5.3951	1.0053	-0.9819
C	4.9557	-1.5592	2.1733
H	-7.5788	1.6363	-0.4479
C	2.3045	-1.8033	0.2218
H	-8.1098	2.2240	1.7293
C	2.7162	-3.1353	-0.0099
H	-6.4735	2.1658	3.3865
C	1.5751	-3.7998	-0.3673
H	-4.2913	1.5408	2.8524
C	0.4818	-2.8430	-0.4083
H	-3.5932	3.4918	0.0664
*