! UKS B3LYP ma-def2-SVP OPT NumFreq
%basis

end 

%scf
  maxiter 200
end

%pal 
	nprocs 16
end
* xyz 0 1
Fe	0.0000	-0.6916	0.0000
Si	4.0667	-3.5783	4.3915
Si	-4.0667	-3.5783	-4.3915
Si	-4.3154	-3.8670	3.7582
Si	4.3154	-3.8670	-3.7582
H	-0.4350	4.3691	3.6498
H	0.4350	4.3691	-3.6498
H	-2.7498	-0.0733	4.3278
H	2.7498	-0.0733	-4.3278
H	-0.4262	3.6440	1.5476
H	0.4262	3.6440	-1.5476
H	-0.4116	-0.1067	5.1234
H	0.4116	-0.1067	-5.1234
H	1.0100	2.9886	1.8183
H	-1.0100	2.9886	-1.8183
H	4.3087	0.1127	2.7329
H	-4.3087	0.1127	-2.7329
H	-0.2569	2.5323	2.6860
H	0.2569	2.5323	-2.6860
H	5.0910	0.0270	0.4084
H	-5.0910	0.0270	-0.4084
H	-0.2890	5.9517	2.2769
H	0.2890	5.9517	-2.2769
H	-4.0693	-1.6340	-6.6230
H	0.5371	6.3193	3.5973
H	-0.5371	6.3193	-3.5973
H	-3.8299	0.3481	-7.7865
H	1.3107	5.8979	2.2599
H	-1.3107	5.8979	-2.2599
H	-3.6840	3.8460	-5.4814
H	-5.8179	-2.8664	-5.8495
H	-4.5159	5.8616	-4.9900
H	-7.6628	-4.0187	-5.1288
H	3.2899	6.2016	4.0188
H	-3.2899	6.2016	-4.0188
H	-6.4367	-5.0447	-5.0555
H	-3.0505	6.0723	-5.5956
H	-6.9855	-4.3573	-3.7180
H	4.9713	3.7835	3.6185
H	-4.9713	3.7835	-3.6185
H	-7.2366	-1.6195	-4.4315
H	3.8095	2.6936	3.4744
H	-3.8095	2.6936	-3.4744
H	-6.2587	-1.9276	-3.2036
C	3.5608	-0.9249	6.2452
H	-3.7132	4.0770	-2.6754
H	3.7132	4.0770	2.6754
H	-5.7391	-1.0528	-4.4408
C	3.4195	0.2508	6.9348
H	-1.4158	4.2471	-7.0282
H	4.3963	-5.9384	1.5429
H	-4.3963	-5.9384	-1.5429
H	-0.7473	3.7428	7.6792
H	0.7473	3.7428	-7.6792
H	5.2224	-5.8599	2.9108
H	-5.2224	-5.8599	-2.9108
H	-1.1297	3.4173	6.1610
H	1.1297	3.4173	-6.1610
H	3.6927	-6.3264	2.9273
H	-3.6927	-6.3264	-2.9273
C	5.8345	-3.0669	4.8685
H	0.0496	2.5163	-6.9232
H	-0.0496	2.5163	6.9232
H	-3.8708	-5.6478	-5.4719
C	6.8192	-4.2265	4.6738
H	0.0000	6.0563	-7.2876
H	0.0000	6.0563	7.2876
H	1.5851	-5.7771	5.9515
H	-1.5851	-5.7771	-5.9515
C	6.3086	-1.8055	4.1743
H	-1.0188	6.3629	-6.0909
H	1.0188	6.3629	6.0909
H	1.3808	-4.2716	5.4526
H	-1.3808	-4.2716	-5.4526
H	-0.4904	5.9429	5.7663
H	0.4904	5.9429	-5.7663
H	1.8216	-5.4080	4.4153
H	-1.8216	-5.4080	-4.4153
H	-3.2782	-5.2598	-7.6275
C	3.3836	-4.7904	5.6343
H	-4.5218	-4.3137	-7.2694
H	-7.0060	1.7810	2.7451
H	7.0060	1.7810	-2.7451
H	-3.0418	-3.7034	-7.3380
C	3.5731	-4.4910	7.0948
H	-7.3388	3.5074	1.4039
H	7.3388	3.5074	-1.4039
H	-6.6265	-2.1005	3.7420
H	6.6265	-2.1005	-3.7420
H	-7.5139	3.5655	-0.8990
H	7.5139	3.5655	0.8990
H	-7.8671	-0.1532	3.7026
H	7.8671	-0.1532	-3.7026
H	-5.9434	3.8532	-1.0178
H	5.9434	3.8532	1.0178
H	-6.4601	2.4625	-0.4160
H	6.4601	2.4625	0.4160
H	-5.2486	-5.9849	3.3125
H	5.2486	-5.9849	-3.3125
H	-8.0861	5.4910	0.7906
H	8.0861	5.4910	-0.7906
H	-5.7887	-5.8658	1.0582
H	5.7887	-5.8658	-1.0582
H	-6.9067	5.8499	1.8117
H	6.9067	5.8499	-1.8117
H	-5.4501	-4.3021	1.0396
H	5.4501	-4.3021	-1.0396
H	-6.6644	5.9706	0.2358
H	6.6644	5.9706	-0.2358
H	-4.2882	-5.3688	1.3027
H	4.2882	-5.3688	-1.3027
H	-2.8987	4.4897	1.8612
H	2.8987	4.4897	-1.8612
H	-7.4701	-5.6638	2.7965
H	7.4701	-5.6638	-2.7965
H	-2.7498	6.2786	0.4239
H	2.7498	6.2786	-0.4239
H	-7.1344	-4.9575	4.1922
H	7.1344	-4.9575	-4.1922
H	-4.3204	6.1377	0.1414
H	4.3204	6.1377	-0.1414
H	-7.2891	-4.0754	2.8654
H	7.2891	-4.0754	-2.8654
H	-3.8007	6.4588	1.6218
H	3.8007	6.4588	-1.6218
H	-5.8821	-3.4171	5.4724
H	5.8821	-3.4171	-5.4724
H	-2.0084	4.1846	-0.1570
H	2.0084	4.1846	0.1570
H	-5.1085	-4.6305	7.2718
H	5.1085	-4.6305	-7.2718
H	-2.5630	2.8549	0.5423
H	2.5630	2.8549	-0.5423
H	-4.9918	-5.5591	5.9755
H	4.9918	-5.5591	-5.9755
H	-3.3891	3.5394	-0.6472
H	3.3891	3.5394	0.6472
H	-3.6840	-4.8572	6.5753
H	3.6840	-4.8572	-6.5753
H	-6.1098	3.7152	3.9668
H	6.1098	3.7152	-3.9668
H	-4.7028	-2.1354	7.0584
H	4.7028	-2.1354	-7.0584
H	-5.4822	5.6509	4.9626
H	5.4822	5.6509	-4.9626
H	-3.3570	-2.2952	6.2050
H	3.3570	-2.2952	-6.2050
H	-4.3466	5.9139	3.8671
H	4.3466	5.9139	-3.8671
H	-4.5918	-1.4713	5.6055
H	4.5918	-1.4713	-5.6055
H	-5.8909	5.9938	3.4536
H	5.8909	5.9938	-3.4536
H	-2.3324	-4.4387	2.6465
H	2.3324	-4.4387	-2.6465
H	-4.3641	3.5321	5.4728
H	4.3641	3.5321	-5.4728
H	-1.3983	-6.1913	3.9520
H	1.3983	-6.1913	-3.9520
H	-4.2123	2.4117	4.3427
H	4.2123	2.4117	-4.3427
H	-2.7294	-6.1767	4.8341
H	2.7294	-6.1767	-4.8341
H	-3.2928	3.7195	4.3025
H	3.2928	3.7195	-4.3025
H	-2.8082	-6.5415	3.2797
H	2.8082	-6.5415	-3.2797
H	-0.6510	-3.9257	3.9856
H	0.6510	-3.9257	-3.9856
H	-1.7223	-2.7516	4.1717
H	1.7223	-2.7516	-4.1717
H	-1.5822	-3.8923	5.2856
H	1.5822	-3.8923	-5.2856
C	-2.6918	1.2869	-6.4112
C	2.0974	1.1474	5.1626
C	-2.0974	1.1474	-5.1626
H	2.9279	-4.3283	2.5073
H	-2.9279	-4.3283	-2.5073
H	4.1248	-3.7891	0.7364
H	-4.1248	-3.7891	-0.7364
H	4.1510	-2.5365	1.7322
H	-4.1510	-2.5365	-1.7322
H	5.4296	-3.4941	1.6147
H	-5.4296	-3.4941	-1.6147
C	0.4671	4.3444	3.2202
C	-0.4671	4.3444	-3.2202
C	-1.9500	-0.2300	2.3569
C	1.9500	-0.2300	-2.3569
C	0.1752	3.2894	2.2345
C	-0.1752	3.2894	-2.2345
C	-1.9728	-0.1343	3.7837
C	1.9728	-0.1343	-3.7837
C	0.5109	5.7424	2.8036
C	-0.5109	5.7424	-2.8036
C	-0.6986	-0.1460	4.2172
C	0.6986	-0.1460	-4.2172
C	3.2832	4.2747	4.6716
C	-3.2832	4.2747	-4.6716
C	0.1407	-0.2282	3.0624
C	-0.1407	-0.2282	-3.0624
C	3.5585	5.7264	4.8303
C	-3.5585	5.7264	-4.8303
C	1.5390	-0.1695	3.0925
C	-1.5390	-0.1695	-3.0925
C	4.0080	3.6527	3.5075
C	-4.0080	3.6527	-3.5075
C	2.3371	-0.1442	1.9476
C	-2.3371	-0.1442	-1.9476
C	0.6822	4.3328	6.3519
C	-0.6822	4.3328	-6.3519
C	3.7643	0.0052	1.9620
C	-3.7643	0.0052	-1.9620
C	-0.4046	3.4245	6.8193
C	0.4046	3.4245	-6.8193
C	4.1875	-0.0355	0.6968
C	-4.1875	-0.0355	-0.6968
C	0.2656	5.8063	6.3765
C	-0.2656	5.8063	-6.3765
C	3.0488	-0.1897	-0.1515
C	-3.0488	-0.1897	0.1515
C	-3.0934	-0.2189	1.5436
C	3.0934	-0.2189	-1.5436
C	2.2104	-0.0457	4.4330
C	-2.2104	-0.0457	-4.4330
C	2.9670	-1.0891	5.0009
C	-2.9670	-1.0891	-5.0009
C	-3.5608	-0.9249	-6.2452
C	-6.4858	0.9861	2.7617
C	6.4858	0.9861	-2.7617
C	-3.4195	0.2508	-6.9348
C	-5.2075	0.9715	2.2183
C	5.2075	0.9715	-2.2183
C	-5.8345	-3.0669	-4.8685
C	-6.8192	-4.2265	-4.6738
C	-6.3086	-1.8055	-4.1743
C	3.9117	-4.3094	2.6787
C	-3.9117	-4.3094	-2.6787
C	4.3437	-5.7306	2.4978
C	-4.3437	-5.7306	-2.4978
C	-3.3836	-4.7904	-5.6343
C	1.9091	-5.0883	5.3363
C	-1.9091	-5.0883	-5.3363
C	-3.5731	-4.4910	-7.0948
C	-6.6452	4.0204	0.9005
C	6.6452	4.0204	-0.9005
C	-6.6411	3.4231	-0.4760
C	6.6411	3.4231	0.4760
C	-7.1169	5.4605	0.9393
C	7.1169	5.4605	-0.9393
C	-3.5278	4.5043	1.0834
C	3.5278	4.5043	-1.0834
C	-3.6052	5.9720	0.7916
C	3.6052	5.9720	-0.7916
C	-2.8170	3.7079	0.1311
C	2.8170	3.7079	-0.1311
C	-5.2227	4.0799	3.6872
C	5.2227	4.0799	-3.6872
C	-5.2370	5.5346	4.0211
C	5.2370	5.5346	-4.0211
C	-4.1802	3.3737	4.5258
C	4.1802	3.3737	-4.5258
C	-4.4412	-0.1939	2.2025
C	4.4412	-0.1939	-2.2025
C	-4.9833	-1.3361	2.8183
C	4.9833	-1.3361	-2.8183
C	-6.2613	-1.3143	3.3543
C	6.2613	-1.3143	-3.3543
C	-6.9961	-0.1619	3.3273
C	6.9961	-0.1619	-3.3273
O	1.3755	2.1436	4.5889
O	-1.3755	2.1436	-4.5889
O	-4.6546	2.0892	1.6713
O	4.6546	2.0892	-1.6713
C	-5.4979	-5.0868	2.9504
C	5.4979	-5.0868	-2.9504
C	-5.2329	-5.1624	1.4553
C	5.2329	-5.1624	-1.4553
C	-6.9783	-4.9328	3.2256
C	6.9783	-4.9328	-3.2256
C	-4.8913	-3.5334	5.5206
C	4.8913	-3.5334	-5.5206
C	-4.6470	-4.7555	6.4165
C	4.6470	-4.7555	-6.4165
C	-4.3352	-2.2415	6.1547
C	4.3352	-2.2415	-6.1547
C	-2.5619	-4.5201	3.6159
C	2.5619	-4.5201	-3.6159
C	-2.3558	-5.9878	3.9500
C	2.3558	-5.9878	-3.9500
C	-1.5437	-3.7019	4.3255
C	1.5437	-3.7019	-4.3255
H	2.5951	2.0963	6.8986
C	4.4488	-3.4607	1.6019
C	-4.4488	-3.4607	-1.6019
N	-0.6399	-0.2872	1.9091
N	0.6399	-0.2872	-1.9091
N	1.8992	-0.2445	0.6355
N	-1.8992	-0.2445	-0.6355
O	3.0858	-2.2370	4.2842
O	-3.0858	-2.2370	-4.2842
O	-4.2132	-2.4552	2.8662
O	4.2132	-2.4552	-2.8662
H	4.0693	-1.6340	6.6230
H	3.8299	0.3481	7.7865
H	3.6840	3.8460	5.4814
H	5.8179	-2.8664	5.8495
H	4.5159	5.8616	4.9900
H	7.6628	-4.0187	5.1288
H	6.4367	-5.0447	5.0555
H	3.0505	6.0723	5.5956
H	6.9855	-4.3573	3.7180
H	7.2366	-1.6195	4.4315
H	6.2587	-1.9276	3.2036
H	5.7391	-1.0528	4.4408
H	1.4158	4.2471	7.0282
H	3.8708	-5.6478	5.4719
H	3.2782	-5.2598	7.6275
H	4.5218	-4.3137	7.2694
H	3.0418	-3.7034	7.3380
Si	1.4281	3.7926	4.7238
Si	-1.4281	3.7926	-4.7238
Si	-5.0420	3.6983	1.8206
Si	5.0420	3.6983	-1.8206
H	-2.5951	2.0963	-6.8986
C	2.6918	1.2869	6.4112
*