! UKS B3LYP ma-def2-SVP OPT NumFreq
%basis

end 

%scf
  maxiter 200
end

%pal 
	nprocs 16
end
* xyz 0 1
H	-4.6358	1.6323	2.5548
H	-6.4255	2.9381	3.0593
H	-7.0665	4.7001	1.6163
H	-5.8053	5.1514	-0.2508
H	-3.9680	3.8199	-0.7661
H	3.3692	3.7846	1.6914
H	-0.3290	-4.9947	-1.2586
H	3.2784	6.9985	-1.6643
H	2.1311	4.9346	-1.9179
C	3.9820	5.6444	1.1998
C	3.9442	6.5800	0.2102
H	0.5725	-0.3770	4.9920
H	2.6321	0.6992	4.4480
H	2.4793	0.9144	1.8727
H	-2.8566	-4.5626	1.4959
H	-1.2072	-1.9269	2.5873
H	-4.1628	-6.4627	1.3058
H	-1.2484	-1.5302	4.1758
H	-4.8739	-7.1871	-0.7712
H	-1.9949	-0.5761	2.9324
H	-4.1319	-6.0773	-2.6484
H	-4.5687	-2.3060	0.1531
H	6.7597	-4.3972	-3.4197
H	4.8984	0.0117	-1.9236
H	2.0369	-4.4855	-1.7881
C	-3.0276	0.4145	0.3783
C	-1.6494	2.4979	0.4463
C	0.4754	2.9781	0.1004
C	2.4749	1.7284	-0.7059
C	-4.2857	-0.2978	0.4097
C	-1.4585	3.8839	0.7996
H	4.2452	-3.6937	-0.3267
C	-0.1596	4.1786	0.5970
C	3.8268	1.6670	-1.1968
C	4.0711	0.3831	-1.5331
H	3.7996	-1.7053	-3.8031
C	-2.8751	1.8031	0.5494
C	1.8287	2.8776	-0.2547
H	-2.8575	-4.1177	-2.5071
C	6.0234	-3.9438	-3.0693
C	-4.0872	2.6142	0.8615
C	-4.8573	2.3558	1.9952
C	-5.9616	3.1452	2.2866
C	-6.3181	4.1847	1.4510
C	-5.5776	4.4372	0.3217
C	-4.4701	3.6590	0.0233
C	2.6282	4.1476	-0.1261
C	3.3336	4.4197	1.0309
C	3.2691	6.3153	-0.9513
C	2.6134	5.0964	-1.1218
C	0.0763	-0.5363	3.1366
C	1.9541	0.4080	3.8053
C	1.8562	0.5006	2.4741
C	-3.1370	-4.8415	0.6624
C	-1.2390	-1.2204	3.2153
C	-3.9220	-5.9786	0.5403
C	-4.3220	-6.4208	-0.6997
C	-3.9097	-5.7411	-1.8262
C	-3.1186	-4.6066	-1.7166
C	-2.5848	-1.7147	0.0024
C	2.8721	-0.3725	-1.2490
C	1.5460	-2.4931	-1.1579
C	-0.5514	-2.9982	-0.6893
C	-4.0098	-1.6030	0.1941
C	1.3734	-3.8982	-1.4339
C	0.0876	-4.2001	-1.1478
C	2.7210	-1.7615	-1.4184
C	-1.9070	-2.8925	-0.3501
C	3.8802	-2.5206	-1.9839
C	4.5502	-3.4849	-1.2335
N	-2.0027	-0.4722	0.1355
C	5.6154	-4.1905	-1.7757
N	-0.4561	1.9658	0.0281
N	1.9081	0.4732	-0.7468
C	5.3668	-3.0024	-3.8206
C	4.2936	-2.2914	-3.2858
C	-2.7385	-4.1373	-0.4674
N	0.6733	-0.1055	2.0439
N	0.8060	-0.2572	4.2202
H	4.4527	5.7521	1.9782
H	4.3858	7.4402	0.3542
H	6.0647	-4.8662	-1.2262
N	0.3620	-1.9639	-0.6957
Fe	0.0374	-0.0514	0.0218
H	-5.1510	0.1113	0.5165
H	-2.1366	4.4769	1.1261
H	0.2695	5.0278	0.7097
H	4.3943	2.3921	-1.3148
H	5.5688	-2.8730	-4.7355
*