! UKS B3LYP ma-def2-SVP OPT NumFreq
%basis

end 

%scf
  maxiter 200
end

%pal 
	nprocs 16
end
* xyz 0 1
H	-4.6013	-3.3877	7.9133
C	3.6151	4.2615	-6.1620
C	3.9960	2.8042	-6.4196
H	1.5333	2.0059	8.1859
C	1.9220	5.6534	-4.8750
H	1.2597	1.3285	6.7615
C	2.7551	-0.8797	-1.5511
H	0.7950	3.5902	5.8772
H	1.2180	4.3563	7.2174
C	3.1523	4.8700	-7.4911
C	4.8567	5.0134	-5.6525
C	0.7487	8.2795	-4.6789
H	-6.3794	-4.1829	6.3859
Zn	-0.0700	-0.3305	-0.4136
H	-3.4887	-4.0712	0.6539
H	-0.0665	-2.3463	4.3304
H	1.6815	-0.5938	4.4228
H	-0.5306	2.0655	-4.9685
H	-2.9508	-1.6933	-3.4064
H	-0.8149	-5.0300	2.3795
H	5.1431	2.5992	5.8280
H	-3.1559	-5.7748	5.5862
H	-3.3596	-2.1918	3.7348
H	-2.7367	-8.0212	5.0812
H	6.9403	0.9247	5.6161
H	-1.3047	-8.6986	5.3124
H	-1.6978	-7.3667	6.1083
H	-1.0006	-7.2474	2.0764
H	-0.9083	-8.6313	2.8772
H	-2.3294	-7.9310	2.6492
H	-6.6598	-5.7274	-4.0915
H	0.3955	-6.3207	5.2644
H	-6.9474	-5.4062	-1.8110
H	0.7436	-7.6435	4.4326
H	7.0534	3.3715	5.0564
H	0.6706	-6.2289	3.6886
H	-5.3384	-1.9471	4.7604
H	-5.6415	-1.8416	6.3287
H	2.6382	1.0547	7.5260
H	-4.1966	-1.4486	5.7646
H	-3.6482	-4.5682	7.4052
H	-3.1410	-3.0512	7.3538
H	4.2623	2.8133	7.8309
H	-6.1143	-4.2899	4.8132
H	4.0866	4.2523	7.1528
H	-5.4434	-5.3451	5.8111
H	3.1762	3.8394	8.4025
H	1.4041	2.0778	4.4141
H	1.9417	4.7050	5.8333
H	3.2998	3.2721	1.1062
H	2.6543	3.9954	-1.1769
H	-3.1659	-3.6904	-3.8097
H	-0.1294	4.8640	-2.4899
H	-4.7260	-4.8465	-5.1213
H	-2.1080	1.7046	-6.6341
H	-3.0772	0.9263	-8.6224
H	-3.8035	-1.3033	-8.7506
H	-3.6098	-2.6383	-6.8667
H	1.7122	-2.1459	-0.6884
H	-1.6649	6.3458	-3.4340
H	-1.7536	7.8689	-3.9128
H	-1.4073	6.7174	-4.9688
H	4.5875	1.0517	2.1384
H	-0.0685	8.5479	-2.2006
H	-0.0434	7.0294	-1.6962
H	8.2213	0.8116	4.6634
C	-2.3967	-2.0101	-1.5110
H	6.9552	-0.1365	4.4184
C	-3.2866	-3.1193	-1.1725
H	8.0258	1.4921	2.2653
C	-3.0511	-3.4040	0.1381
H	6.7309	0.5638	2.1165
C	-2.0227	-2.5137	0.5980
H	6.6544	2.1114	1.7205
H	6.7922	3.8639	3.5548
C	-1.4674	-2.5175	1.8856
C	-0.4280	-1.6807	2.3251
C	0.1659	-1.7441	3.6341
H	8.1845	3.1758	3.9405
C	1.1140	-0.7871	3.6846
C	1.1061	-0.1099	2.4096
C	-6.0146	-5.2450	-3.5882
C	1.9141	0.9893	2.0720
C	-6.1800	-5.0355	-2.2310
C	1.2987	2.3283	-1.1727
C	0.7330	2.3619	-2.4559
C	-0.1690	1.4121	-2.9672
C	4.5574	2.3281	5.1322
C	-0.7195	1.4276	-4.2899
C	3.1864	2.4300	5.3351
C	-1.5614	0.3635	-4.4014
H	2.4580	2.4677	-4.4745
C	-1.5444	-0.2960	-3.1080
C	-2.3568	-1.3671	-2.7402
H	3.1919	2.2919	-6.6472
C	-2.0112	-3.4803	2.9005
H	4.6323	2.7598	-7.1638
C	-1.4741	-4.7493	3.0041
H	4.4074	2.4264	-5.6134
C	-1.8855	-5.6306	4.0137
C	2.5747	2.9383	6.6425
C	-2.8630	-5.1883	4.9005
C	1.9445	1.7215	7.3422
C	-3.4289	-3.9116	4.8185
C	1.5433	3.9878	6.3687
C	-2.9903	-3.0645	3.8091
C	3.6175	3.5122	7.5917
C	-1.2056	-6.9991	4.1309
H	2.4016	4.3487	-7.8451
C	-1.7880	-7.8472	5.2598
C	-1.3765	-7.7721	2.8142
C	0.2853	-6.7784	4.4041
C	-4.4939	-3.4965	5.8453
C	-4.9592	-2.0543	5.6579
C	-3.9199	-3.6384	7.2560
C	-5.7187	-4.4118	5.7010
H	2.2255	6.3978	-5.3806
H	2.8657	5.7953	-7.3438
H	3.8925	4.8548	-8.1325
H	5.5721	4.9542	-6.3212
H	4.6293	5.9543	-5.5013
H	5.1607	4.6102	-4.8129
H	3.2464	-0.5754	-0.7589
H	3.3093	-1.5082	-2.0580
C	1.1143	3.5085	-3.3372
H	2.5356	-0.1090	-2.1146
H	0.6157	8.0035	-5.6109
H	0.2685	9.1168	-4.5133
H	1.7054	8.4133	-4.5117
H	1.3234	7.7649	-2.0887
C	-4.2169	-3.8371	-2.0668
C	-3.9622	-4.0321	-3.4186
C	-4.8762	-4.7265	-4.1905
C	1.8643	1.6912	0.8539
C	-2.2655	-0.0686	-5.6285
C	2.6559	2.8592	0.5427
C	-2.4058	0.8044	-6.7033
C	2.3049	3.2510	-0.7010
C	-2.9835	0.3459	-7.8766
C	-3.4201	-0.9593	-7.9520
C	0.9173	5.8528	-3.9355
C	-3.2810	-1.7473	-6.8291
C	0.5377	4.7531	-3.1563
N	-0.6704	0.3456	-2.2657
N	-1.6369	-1.6763	-0.4218
C	0.2159	7.1961	-3.7467
N	0.1681	-0.6889	1.5898
C	-1.2904	7.0153	-4.0430
N	1.0441	1.3905	-0.2042
N	-5.3210	-4.3423	-1.4715
C	0.3702	7.6784	-2.3027
N	-2.7101	-1.3339	-5.6882
O	1.5429	-1.5332	-1.1403
C	2.8515	1.4864	3.1251
C	4.2381	1.4072	2.9473
C	5.1090	1.8420	3.9393
C	2.3446	2.0070	4.3033
C	6.6392	1.8062	3.7607
C	7.2434	0.7567	4.6991
C	7.0486	1.4630	2.3396
C	7.2192	3.1771	4.1093
C	2.0846	3.3294	-4.3301
C	2.5066	4.4022	-5.1074
*