! UKS B3LYP ma-def2-SVP OPT NumFreq
%basis

end 

%scf
  maxiter 200
end

%pal 
	nprocs 16
end
* xyz 0 1
C	2.0368	0.7441	5.9786
H	-1.2682	-4.6485	-3.6088
H	-0.9357	-5.8932	-2.6601
H	-1.7004	-6.1172	0.4517
H	-1.0136	-5.4666	1.7437
H	0.4048	-6.3624	-0.5826
H	0.4582	-7.0639	0.8556
H	1.1184	-5.6212	0.6437
C	-2.4991	-4.7374	-1.9449
C	-1.6550	-5.3593	-3.0568
C	-0.9526	-5.5444	0.7581
H	-2.9105	-5.4629	-1.4116
C	0.3771	-6.2079	0.3855
H	-2.2206	-5.9340	-3.6134
H	2.9105	5.4629	1.4116
H	2.2206	5.9340	3.6134
H	1.2682	4.6485	3.6088
H	0.9357	5.8932	2.6601
H	1.7004	6.1172	-0.4517
H	1.0136	5.4666	-1.7437
H	-0.4048	6.3624	0.5826
H	-0.4582	7.0639	-0.8556
H	-1.1184	5.6212	-0.6437
C	2.4991	4.7374	1.9449
C	1.6550	5.3593	3.0568
C	0.9526	5.5444	-0.7581
C	-0.3771	6.2079	-0.3855
H	-1.0162	4.0063	-5.9786
H	-0.5673	2.4700	-5.9839
H	-3.4734	0.5877	-5.2829
H	-1.4454	-0.0537	-6.3450
H	-2.6011	-1.1041	-6.6938
H	-1.4969	-1.4659	-5.5948
H	3.2313	4.2117	2.3543
C	-2.0368	-0.7441	-5.9786
H	5.0620	0.0777	-1.7106
Zn	0.0000	0.0000	-0.0000
H	-2.3763	-2.1433	-2.9962
H	2.3763	2.1433	2.9962
H	-0.3335	3.6712	-2.3510
H	0.3335	-3.6712	2.3510
H	-2.1512	3.6824	-3.9282
H	2.1512	-3.6824	3.9282
H	-2.7424	2.7023	-5.0443
H	2.7424	-2.7023	5.0443
H	0.0124	3.4686	-4.8762
H	-0.0124	-3.4686	4.8762
H	-3.5350	-0.8283	-4.5392
H	3.5350	0.8283	4.5392
H	-3.1097	-0.7977	0.6907
H	3.1097	0.7977	-0.6907
H	-5.1071	2.0378	2.7490
H	5.1071	-2.0378	-2.7490
H	-3.1315	3.3353	2.7468
H	3.1315	-3.3353	-2.7468
H	-1.2335	2.5080	1.7063
H	1.2335	-2.5080	-1.7063
C	-0.8898	1.7398	-2.3745
C	0.8898	-1.7398	2.3745
C	-1.6766	1.7131	-3.5949
C	1.6766	-1.7131	3.5949
C	-2.1169	0.4285	-3.7529
C	2.1169	-0.4285	3.7529
C	-1.6171	-0.3193	-2.6060
C	1.6171	0.3193	2.6060
C	-1.8733	-1.6755	-2.3397
C	1.8733	1.6755	2.3397
C	-1.4772	-2.4162	-1.2259
C	1.4772	2.4162	1.2259
C	-1.7152	-3.8429	-1.0253
C	1.7152	3.8429	1.0253
C	-1.0937	-4.1836	0.1470
C	1.0937	4.1836	-0.1470
C	-0.5000	-2.9600	0.6686
C	0.5000	2.9600	-0.6686
C	-0.2487	2.8707	-1.8475
C	0.2487	-2.8707	1.8475
C	-1.9443	2.8948	-4.4912
C	1.9443	-2.8948	4.4912
C	-0.7733	3.2409	-5.4157
C	0.7733	-3.2409	5.4157
C	-2.9221	-0.1333	-4.8879
C	2.9221	0.1333	4.8879
H	-3.2313	-4.2117	-2.3543
C	-3.1169	0.0518	1.1153
C	3.1169	-0.0518	-1.1153
C	-4.2895	0.4738	1.7182
C	4.2895	-0.4738	-1.7182
C	-4.3147	1.7167	2.3339
C	4.3147	-1.7167	-2.3339
C	-3.1511	2.4820	2.3294
C	3.1511	-2.4820	-2.3294
C	-2.0227	1.9795	1.7055
C	2.0227	-1.9795	-1.7055
N	-0.8748	0.4993	-1.8019
N	0.8748	-0.4993	1.8019
N	-0.7587	-1.9137	-0.1734
N	0.7587	1.9137	0.1734
N	-1.9890	0.7808	1.0993
N	1.9890	-0.7808	-1.0993
H	-5.0620	-0.0777	1.7106
H	1.0162	-4.0063	5.9786
H	0.5673	-2.4700	5.9839
H	3.4734	-0.5877	5.2829
H	1.4454	0.0537	6.3450
H	2.6011	1.1041	6.6938
H	1.4969	1.4659	5.5948
*