! UKS B3LYP ma-def2-SVP OPT NumFreq
%basis
NewGTO Ru "ma-def2-TZVP" end
end 

%scf
  maxiter 200
end

%pal 
	nprocs 16
end
* xyz 0 1
H	-0.7375	5.7588	-2.4847
H	-1.8939	4.6991	-2.7997
H	0.4071	5.1068	-4.4338
H	2.4195	5.1854	-0.6604
H	1.4172	5.9446	-1.6473
H	3.5627	5.9181	-2.5847
H	2.5854	5.0495	-3.5060
H	3.6010	4.3200	-2.5073
H	5.7475	1.6027	2.0642
H	4.9037	2.7347	1.3107
C	0.9783	-2.7095	1.0492
C	0.4920	-4.0251	1.4060
H	5.7388	1.9818	-0.7779
C	-0.7396	-4.1536	0.8287
C	-1.0256	-2.9144	0.1498
H	4.5076	-1.6285	3.1246
C	-2.2237	-2.5640	-0.4799
H	5.6083	-0.5093	2.8198
H	6.2465	-1.7103	0.8678
C	1.2045	-4.9755	2.3227
H	-0.0252	2.4044	1.2742
C	1.0364	-4.5698	3.7768
C	-1.6715	-5.3280	0.9002
H	-0.8680	3.1190	3.3119
C	-2.6208	-5.2590	2.0989
H	-2.2169	-0.6070	4.0745
H	-1.3759	-1.3238	2.0199
Ru	0.2051	-0.1502	-0.4595
C	-2.5734	-1.3535	-1.0477
C	-3.8299	-1.0487	-1.7178
C	-3.7147	0.2064	-2.2212
C	-2.4047	0.7118	-1.8403
H	-5.3759	0.3370	-3.4059
C	-1.8866	1.9563	-2.1459
C	-0.6500	2.4809	-1.8057
C	-0.1803	3.8241	-2.0898
C	1.0640	3.9292	-1.5458
C	1.3849	2.6423	-0.9487
C	2.5626	2.3343	-0.2810
C	2.8722	1.1376	0.3452
C	4.1023	0.8573	1.0913
C	3.9921	-0.4021	1.5709
C	2.7053	-0.9202	1.1351
C	2.2079	-2.1754	1.4332
C	-0.9226	4.8690	-2.8778
C	-0.5445	4.8913	-4.3443
C	1.9683	5.1291	-1.5399
C	3.0228	5.1015	-2.6306
C	5.2531	1.8108	1.2330
C	4.9872	-1.1560	2.3985
C	5.7926	-2.1637	1.6103
C	-0.6068	0.4559	1.3922
C	-0.4729	1.7800	1.8329
C	-0.9641	2.2112	3.0459
C	-1.5945	1.3065	3.8613
C	-1.7663	0.0014	3.5001
C	-1.2663	-0.4148	2.2731
N	-1.7478	-0.2598	-1.1302
N	0.3241	1.7960	-1.1140
N	2.0677	0.0375	0.3802
N	0.0491	-2.0586	0.2979
N	0.6640	-1.0126	-1.9791
O	0.6233	-1.8695	-2.7387
F	-2.0794	1.7089	5.0644
H	-4.7149	-2.9027	-1.7435
H	-6.8272	-2.3261	-0.8678
H	6.9613	2.3545	0.1871
H	6.5595	0.8223	-0.0400
H	-3.2253	-6.0309	2.0820
H	-5.4389	-1.8547	-2.7095
H	-6.4010	-0.7843	-0.8218
H	-5.6825	-1.8419	0.1398
H	-6.0661	2.5138	-2.8840
H	-4.7771	2.7230	-1.9596
H	-5.9104	1.6792	-1.5279
H	-4.2333	1.3755	-3.8176
H	-1.0780	5.5709	-4.8089
H	-0.7190	4.0121	-4.7402
C	6.2151	1.7354	0.0431
C	-5.0240	-1.9651	-1.8180
C	-6.0780	-1.7060	-0.7464
C	-4.7054	0.9709	-3.0476
C	-5.4293	2.0689	-2.2876
H	2.7667	-2.7360	1.9581
H	-2.8831	-3.2468	-0.5206
H	6.4595	-2.5789	2.1944
H	5.1949	-2.8528	1.2533
H	2.1681	-4.9914	2.0961
H	0.8441	-5.8887	2.1944
H	1.5534	-5.1762	4.3476
H	0.0897	-4.6176	4.0222
H	-2.4519	2.5244	-2.6552
H	1.3595	-3.6524	3.8997
H	-1.1372	-6.1605	0.9599
H	3.2247	3.0139	-0.2497
H	-2.2049	-5.3694	0.0685
H	-3.1456	-4.4329	2.0531
H	-2.1009	-5.2696	2.9296
*