! UKS B3LYP ma-def2-SVP OPT NumFreq
%basis
NewGTO Ru "ma-def2-TZVP" end
end 

%scf
  maxiter 200
end

%pal 
	nprocs 16
end
* xyz 0 1
H	2.8985	-0.5608	0.2700
H	3.0381	2.4650	2.8163
H	5.1510	0.4085	2.6260
H	5.4061	1.4171	1.4534
H	5.1950	-0.1051	1.1447
H	-0.1612	-5.4504	2.1030
H	3.3529	2.3201	-4.2062
H	3.3056	3.1088	-5.5606
C	2.3695	-2.3213	-2.7283
H	1.3381	-5.8657	3.8458
H	1.1275	-4.4086	4.3841
C	3.2796	-2.4098	-3.9194
C	4.6771	-1.9245	-3.6408
C	2.6426	0.1529	0.8078
C	2.7374	1.8262	2.2101
C	4.9364	0.6235	1.7153
C	0.7684	-3.3029	0.3538
H	-1.4935	4.0523	-0.7050
C	-0.5956	-3.4921	2.4925
H	2.0029	0.0841	-3.8534
N	3.4868	0.8483	1.5933
C	-0.1942	-4.8927	2.8968
H	-5.5831	2.3717	2.8287
H	-2.4680	5.1064	1.1260
H	-3.3202	4.8287	2.4110
H	-4.6839	5.6273	0.6862
H	-5.1306	4.1801	1.0892
H	-4.2777	4.4049	-0.2075
H	-0.1692	5.3042	-2.2170
H	0.5834	5.1445	-3.5811
H	-1.5233	6.0008	-3.9708
H	-2.1791	4.7735	-3.2503
H	-1.4341	4.5744	-4.6154
H	0.7600	2.2095	1.9967
H	1.3689	1.7943	-5.3703
H	0.9663	3.3152	-5.3601
H	2.9550	3.8361	-4.2161
Ru	-0.3599	-0.1210	-0.1971
C	1.5891	-1.1481	-2.3493
C	1.2382	-2.6813	-0.7896
C	-0.0998	-2.7894	1.3219
C	-1.4129	-2.6408	3.1525
C	-1.4397	-1.3962	2.3925
C	-2.1399	-0.2414	2.7339
H	-0.8731	-5.2563	3.4849
C	-2.1786	0.9662	2.0473
C	-2.9018	2.1641	2.4644
C	-2.6471	3.1162	1.5319
C	-1.7801	2.5228	0.5266
C	-1.2546	3.1604	-0.5959
C	-0.4220	2.6334	-1.5721
C	0.0880	3.3459	-2.7448
C	0.8185	2.4491	-3.4711
C	0.8122	1.1960	-2.7212
C	1.5197	0.0485	-3.0602
C	-3.1552	4.5351	1.5009
C	-4.4293	4.7022	0.6933
C	-0.1548	4.8079	-3.0502
C	-1.4388	5.0622	-3.7872
C	-1.7942	-0.7783	-1.1247
C	1.4776	1.6690	1.7558
H	-1.2924	-3.3951	5.1071
H	-3.6287	-3.3164	5.4852
H	-3.3299	-4.0916	4.1558
C	1.4375	2.6235	-4.8702
C	2.8979	3.0081	-4.6975
N	0.9208	-1.3962	-1.1735
N	-0.6345	-1.5228	1.2867
N	-1.5233	1.2119	0.8651
N	0.0389	1.3372	-1.5969
N	1.3931	0.6136	0.8951
O	-2.6753	-1.2402	-1.7111
H	-2.6413	-0.2832	3.5160
H	1.0678	-4.1727	0.4951
H	3.3210	-3.3324	-4.2153
H	2.9605	-4.9430	-2.5875
H	2.0488	-5.2563	-1.3534
H	4.2656	-5.6605	-0.8073
H	-3.3544	1.7525	4.4014
H	-3.7655	3.2034	3.9809
H	3.7275	-4.4848	0.0799
H	4.6400	-4.1789	-1.1580
H	-5.6396	1.8975	4.3223
H	-5.1614	0.9085	3.2040
H	1.8357	-4.6396	3.0056
C	-3.2903	-3.2366	4.5911
H	-1.7884	-1.8975	5.0789
H	-3.8231	-2.6051	4.1016
C	2.1472	-3.2636	-1.7698
H	2.9020	-1.8840	-4.6426
H	5.2195	-2.0474	-4.4238
H	5.0500	-2.4245	-2.9128
H	4.6525	-0.9933	-3.4120
C	-3.7554	2.2783	3.6920
C	-5.1601	1.8237	3.4946
C	2.7276	-4.6519	-1.6933
C	3.9516	-4.7538	-0.8156
C	1.1508	-4.9578	3.5970
C	-1.8498	-2.7575	4.6348
*