! UKS B3LYP ma-def2-SVP OPT NumFreq
%basis

end 

%scf
  maxiter 200
end

%pal 
	nprocs 16
end
* xyz 0 1
H	1.9253	-3.6651	-0.5085
C	-1.2177	0.6568	2.6727
C	-1.8784	1.6366	3.4704
C	-1.9789	2.7679	2.7116
C	-1.3611	2.4492	1.4313
C	-1.2804	3.2990	0.3483
C	-0.7120	3.0321	-0.8747
C	-0.6831	3.9522	-1.9948
C	-0.0785	3.3122	-3.0076
C	0.2813	1.9739	-2.5172
C	0.8672	0.9967	-3.2598
C	1.2066	-0.2806	-2.8210
C	1.8328	-1.2990	-3.6225
C	2.0375	-2.3625	-2.8255
C	1.5395	-2.0027	-1.5340
C	1.4915	-2.8472	-0.4280
C	0.8640	-2.5936	0.7734
C	0.0595	-2.9321	2.8397
C	-0.2440	-1.6004	2.3592
C	-0.9232	-0.6378	3.0766
C	-2.3456	1.4693	4.8806
C	-1.2426	1.5795	5.9095
C	-2.5368	4.1102	3.0568
C	-1.4499	5.0994	3.4621
C	-1.2695	5.3357	-1.9735
C	-0.4026	6.3687	-1.2447
C	0.2409	3.8420	-4.3636
H	3.0961	-4.0634	-2.4370
C	1.4441	4.7781	-4.3478
H	3.1957	-3.6199	-3.9406
C	2.1447	-1.1848	-5.0837
H	0.9336	-4.8799	-2.7818
C	0.9910	-1.7080	-5.9567
H	1.8635	-5.5252	-3.8668
H	0.9265	-4.3276	-4.2480
H	1.3392	-5.3154	2.7064
H	2.1676	-4.9463	1.4270
H	0.7942	-6.7481	0.9037
H	0.2827	-5.5106	0.0869
C	-2.0086	-1.7637	-0.6745
H	-0.4755	-5.9621	1.3843
C	-1.5357	-2.6082	-1.6470
H	0.2537	-4.1523	4.4749
H	-2.0244	-4.5254	4.9062
H	-1.7024	-4.9171	3.4232
C	-2.8885	-2.1767	0.3006
H	-2.4110	-3.5549	3.7394
C	2.0874	1.4640	1.8091
H	-1.7016	-4.5148	-2.3279
C	3.0782	0.8825	0.0174
H	-3.1824	-5.2398	-0.6823
H	-3.9452	-3.7726	0.9047
N	-0.8789	1.1600	1.4529
N	-0.1174	1.8424	-1.2097
N	1.0125	-0.7214	-1.5342
N	0.2405	-1.4052	1.0971
N	-1.5900	-0.3789	-0.6567
N	1.8452	0.9104	0.6660
N	3.3735	1.8172	1.9969
O	-2.5555	0.4058	-0.9056
C	0.7482	-3.5509	1.8723
H	4.9104	1.5795	0.6481
H	4.2597	1.7415	3.7939
H	4.7607	2.9378	2.9139
C	2.5901	-3.7129	-3.1887
C	1.4743	-4.7047	-3.5548
C	1.2740	-4.9583	1.8071
C	0.3858	-5.8811	0.9678
C	-0.4007	-3.5084	4.1626
C	-1.7605	-4.1895	4.0466
Fe	0.0203	0.2044	-0.0725
C	-1.9918	-3.9280	-1.6670
H	-1.6510	4.1447	0.4563
H	1.0592	1.1998	-4.1455
C	-2.8876	-4.3581	-0.6881
C	-3.3327	-3.4818	0.2679
H	-1.2165	-0.8834	3.9236
H	-2.7676	0.6010	4.9687
H	-3.0168	2.1438	5.0703
H	-0.5873	0.8971	5.7496
H	-1.6136	1.4680	6.7896
H	-0.8285	2.4426	5.8451
H	-3.1687	4.0133	3.7858
H	-3.0179	4.4621	2.2921
H	-1.8563	5.9000	3.8044
H	-0.9115	5.3158	2.6991
H	-0.8983	4.7077	4.1426
H	-2.1396	5.2986	-1.5459
H	-1.4047	5.6305	-2.8877
H	-0.8651	7.2092	-1.2118
H	0.4275	6.4776	-1.7125
H	-0.2281	6.0647	-0.3496
H	-0.5304	4.3187	-4.7098
H	0.4221	3.0985	-4.9603
H	1.6537	5.0463	-5.2448
H	2.1972	4.3240	-3.9651
H	1.2369	5.5548	-3.8223
H	2.9485	-1.6907	-5.2783
H	2.3167	-0.2554	-5.3027
H	1.1672	-1.5008	-6.8758
H	0.1706	-1.2897	-5.6857
H	0.9146	-2.6586	-5.8502
H	-0.4550	-2.7967	4.8192
H	-0.9231	-2.3081	-2.2785
H	-3.1761	-1.5911	0.9642
H	1.4274	1.6074	2.4481
H	3.2418	0.5346	-0.8302
H	3.3575	3.0095	3.6093
C	4.0093	1.4574	0.8409
C	3.9914	2.4293	3.1815
*