! UKS B3LYP ma-def2-SVP OPT NumFreq
%basis

end 

%scf
  maxiter 200
end

%pal 
	nprocs 16
end
* xyz 0 1
Fe	-0.1772	-0.0920	0.0241
H	-3.7816	3.4757	0.1940
H	-5.0544	1.3764	0.0159
H	-3.7182	-3.7198	0.6690
H	-1.5823	-4.9328	0.8286
H	-4.9417	-1.9322	-1.7758
H	-7.2385	-2.3099	-1.9304
H	-8.6115	-1.9496	-0.0952
H	-5.4072	-0.8264	2.0774
H	0.2633	2.2328	-2.6215
H	-1.7960	-0.4848	2.5526
C	1.4301	3.8373	0.1933
C	0.3531	2.8948	0.1714
C	-0.9954	3.2015	0.3168
C	-2.0228	2.2690	0.2574
C	-3.4166	2.5993	0.1841
C	-4.1119	1.4637	0.0993
H	1.3516	4.7710	0.3478
C	-3.1521	0.4003	0.1558
C	-3.4828	-0.9635	0.2138
C	-2.5423	-1.9683	0.3294
C	-2.8511	-3.3459	0.5739
C	-1.6882	-4.0066	0.6449
C	-0.6285	-3.0654	0.3926
H	-0.7408	5.3557	-1.2457
H	-1.2544	7.5984	-0.8238
H	-2.1329	8.2229	1.2325
H	-2.6002	6.6010	2.8278
H	-2.1090	4.3646	2.4188
C	-4.9278	-1.3126	0.1678
C	-5.4952	-1.7738	-1.0207
C	-6.8644	-2.0057	-1.1119
C	-7.6760	-1.7975	-0.0295
C	-7.1276	-1.3674	1.1515
C	-5.7694	-1.1256	1.2512
C	0.6058	0.2382	-2.7442
C	0.7909	1.5621	-3.0381
C	-0.9846	-0.1595	2.9239
N	0.8492	1.6120	-0.0370
N	-1.8800	0.9052	0.2216
N	-1.1655	-1.8025	0.2493
N	-0.4346	-0.1432	-1.7755
N	0.0352	0.0213	2.1156
O	-1.4980	-0.5110	-2.3181
C	-1.3520	4.6351	0.5525
C	-1.1134	5.6050	-0.4093
C	-1.4164	6.9414	-0.1565
C	-1.9485	7.3091	1.0514
C	-2.2120	6.3480	1.9988
C	-1.9198	5.0191	1.7564
H	-7.6867	-1.2341	1.9083
H	0.2909	0.6608	5.7835
H	-1.7239	-0.0248	4.8309
H	3.4000	-3.6762	-0.5980
H	4.6145	-1.5644	-0.9599
H	3.4398	3.5381	-0.0968
H	4.4362	1.9361	-2.4662
H	6.6999	2.4622	-2.6859
H	8.1950	1.9735	-0.9646
H	7.4266	0.9625	0.9760
H	5.1631	0.4526	1.2174
H	0.2221	-5.5038	-1.3483
H	0.8636	-7.7278	-1.1160
H	2.1239	-8.3922	0.7387
H	2.7761	-6.8302	2.3184
H	2.1747	-4.5975	2.0667
H	1.9429	2.8100	-4.1892
H	3.1744	1.1196	-5.2094
H	2.7935	-1.0894	-4.6924
H	1.1777	-1.6766	-3.1096
H	1.9071	0.6184	2.1149
H	2.1083	1.0785	4.3912
C	1.7020	-2.4595	-0.1092
C	3.0474	-2.7998	-0.4982
C	3.7075	-1.6529	-0.6933
C	2.7959	-0.5895	-0.4283
C	3.1415	0.7593	-0.4206
C	2.2066	1.7766	-0.1979
C	2.5656	3.1691	-0.0426
C	0.2232	0.5225	4.8461
C	-0.9488	0.0961	4.2945
C	0.7033	-3.3870	0.2146
C	4.5709	1.1308	-0.6008
C	5.0395	1.7354	-1.7606
C	6.3873	2.0483	-1.8909
C	7.2730	1.7591	-0.8708
C	6.8186	1.1657	0.2734
C	5.4710	0.8566	0.4150
C	1.1139	-4.8331	0.3478
C	0.7411	-5.7706	-0.5981
C	1.1187	-7.0895	-0.4622
C	1.8735	-7.4809	0.6367
C	2.2568	-6.5609	1.5696
C	1.8910	-5.2370	1.4243
C	1.7774	1.9000	-3.9713
C	2.5074	0.8964	-4.5704
C	2.2850	-0.4125	-4.2630
C	1.3302	-0.7653	-3.3337
C	1.1534	0.4726	2.6758
C	1.2908	0.7456	4.0381
N	1.5472	-1.0919	-0.1093
*