! UKS B3LYP ma-def2-SVP OPT NumFreq
%basis

end 

%scf
  maxiter 200
end

%pal 
	nprocs 16
end
* xyz 0 1
Co	0.0194	0.0249	0.0130
H	-2.1196	-3.1710	1.9827
H	-3.3222	2.6999	0.7194
H	-1.0243	-5.0854	2.3540
H	0.3136	-5.8498	2.0701
H	3.2544	-2.6916	-0.9131
H	-1.4938	-7.0276	1.1609
H	-0.5294	-6.5791	0.0083
H	-1.8603	-5.7922	0.2682
H	2.0321	3.1505	-2.2325
H	3.7022	2.4767	-3.6731
H	4.8442	1.4099	-3.7815
H	5.6787	3.3891	-2.8554
H	5.8092	2.2267	-1.8124
H	4.6541	3.2780	-1.6746
H	5.3172	-0.8235	-3.2745
H	2.3062	-5.7181	0.9454
H	4.7364	-2.0744	-2.5299
H	3.3070	-4.6153	0.4586
H	3.2282	-6.3168	-1.1136
H	-5.7312	-3.3952	2.7114
H	2.6494	-5.0114	-1.7605
H	-4.7435	-3.2852	1.4976
H	1.6783	-6.1368	-1.2634
H	-5.8995	-2.2390	1.6669
H	-4.7768	2.0899	2.3279
H	6.8141	-1.5898	-1.6240
H	-5.2852	0.8698	3.1691
H	5.7347	-1.3080	-0.5231
H	-6.9528	1.5158	1.6725
H	6.3713	-0.1167	-1.3189
H	-6.4677	0.0746	1.2905
H	-5.9743	1.3111	0.4634
H	-3.4143	4.5958	-0.7001
H	-2.4206	5.6935	-1.2118
H	-2.7088	4.9837	1.5054
H	-0.4315	5.8169	-2.3633
H	0.8403	4.9919	-2.7604
H	-3.2611	6.3086	0.8750
H	-1.7140	6.0823	0.9925
H	1.8444	5.5855	-0.7117
H	1.5069	6.8611	-1.5574
H	0.5846	6.4496	-0.3595
C	0.1578	-4.1225	1.0082
C	-0.4742	-2.8161	0.9287
C	-1.6777	-2.4941	1.5227
C	-2.2774	-1.2555	1.4890
C	-3.5376	-0.9397	2.1418
C	-3.8159	0.3565	1.8542
C	-2.7183	0.8420	1.0423
C	-2.6187	2.1176	0.5450
C	-1.5616	2.6114	-0.1926
C	2.1918	1.2402	-1.7322
C	-1.4828	3.9601	-0.7092
C	3.4662	0.9398	-2.3596
C	3.7468	-0.3554	-2.0619
C	-0.2849	4.0609	-1.3406
C	2.6384	-0.8430	-1.2706
C	0.3583	2.7771	-1.2245
C	2.5340	-2.1217	-0.7693
C	1.5844	2.4705	-1.7844
C	1.4601	-2.6340	-0.0733
C	-0.4091	-5.3539	1.6537
C	1.3720	-3.9940	0.4074
C	-1.1403	-6.2736	0.6829
C	-4.3423	-1.9026	2.9632
C	-5.2645	-2.7873	2.1334
C	-5.0216	1.1517	2.2804
C	-6.2148	0.9994	1.3399
C	-2.5491	5.0042	-0.5407
C	-2.5595	5.6544	0.8355
C	2.4500	-5.0309	0.2756
C	0.2916	5.2748	-2.0117
C	4.2938	1.9078	-3.1572
C	2.5071	-5.6841	-1.0908
C	5.1908	2.7801	-2.2962
N	0.3247	-1.9170	0.2458
C	4.9772	-1.1413	-2.4228
N	-1.7729	-0.1548	0.8252
C	6.0755	-1.0282	-1.3748
N	-0.4296	1.8872	-0.5221
N	0.8214	0.4923	1.6064
C	1.1347	6.1204	-1.0744
O	0.6141	-0.0468	2.6026
N	1.6869	0.1374	-1.0784
H	-4.8766	-1.4026	3.5993
H	-3.7353	-2.4673	3.4673
*