! UKS B3LYP ma-def2-SVP OPT NumFreq
%basis

end 

%scf
  maxiter 200
end

%pal 
	nprocs 16
end
* xyz 0 1
H	-1.1557	-2.9749	3.8349
H	-0.9845	-5.3112	3.9554
H	-4.7670	-5.6470	2.6511
H	7.3505	4.1562	-3.8916
H	-4.9468	-3.3078	2.5053
H	8.2666	2.0495	-3.8566
H	7.0853	0.2570	-2.9279
H	-2.0869	-3.6608	-1.7837
H	-3.5351	-4.8348	-0.3735
H	-6.6647	-3.2203	-2.3219
H	4.0063	-3.6594	0.4290
H	3.7635	5.4234	5.9492
H	3.6174	3.6195	7.3916
H	2.6816	1.6003	6.6752
H	3.0104	-2.7553	5.6242
H	3.6937	-4.9568	5.2962
H	1.6503	-5.0859	1.8072
H	0.9543	-2.9060	2.1529
C	4.0709	-4.0842	-0.4175
C	4.0646	-5.4748	-0.4843
Zn	0.2645	3.2389	-0.6250
C	4.1574	-6.0761	-1.7182
H	-0.3722	3.5104	4.4800
C	4.1904	-5.3227	-2.8847
H	-2.6854	3.2564	3.6113
H	-4.7795	2.2246	-1.1865
C	4.2119	-3.9479	-2.8023
H	-3.8909	2.1184	-3.4869
H	0.9647	2.3609	-5.6596
H	3.2726	2.5532	-4.7694
H	5.3958	3.0268	0.0794
H	4.4875	3.2134	2.3889
H	-4.9044	4.4562	0.5905
H	-7.0578	4.3887	1.4612
H	-7.6822	2.6436	2.8667
H	-6.1702	0.9602	3.4184
H	-2.9379	0.7277	2.6169
H	-2.3458	-1.1164	3.1121
H	-1.7607	4.2495	-5.5775
H	-2.5381	3.9496	-7.7422
H	-2.8275	1.8084	-8.5960
H	-2.4622	-0.0415	-7.2485
H	-1.1895	-0.1448	-4.2042
H	-1.8217	-1.9688	-3.2166
H	-5.2430	-2.0090	-3.6715
H	5.1993	4.5408	-3.0420
H	4.3552	0.5598	-1.1891
H	4.1322	-1.6115	-0.6384
H	2.8853	5.2584	3.7974
H	1.0946	1.0908	3.7594
H	0.9451	-0.9800	3.4580
C	-3.0554	-2.9246	3.1371
C	-1.8927	-3.5173	3.5767
Cl	4.2379	-7.8198	-1.8199
C	-1.7869	-4.9051	3.6498
C	-2.8549	-5.6772	3.2725
C	-4.0224	-5.1003	2.8757
H	-1.6241	6.3218	-2.9067
C	-4.1352	-3.7082	2.7928
H	-2.3255	5.2570	-1.9393
H	-2.7523	6.7983	-1.8767
H	-1.2208	6.2544	1.4483
H	-2.5179	6.7595	0.6594
H	-2.0924	5.2182	0.5944
C	6.8506	3.4344	-3.5293
C	7.3961	2.1901	-3.5035
C	6.6941	1.1224	-2.9622
C	5.4023	1.3334	-2.4695
C	4.7136	-1.0217	-2.3145
C	-3.5109	-2.6993	-2.8473
C	-3.0269	-3.5532	-1.8807
C	-3.8806	-4.2607	-1.0455
C	-5.2365	-4.1129	-1.2125
C	-5.7252	-3.2935	-2.1992
C	-4.8869	-2.5831	-3.0020
C	4.1712	-3.3078	-1.5516
C	3.2815	3.5449	6.5052
C	2.7184	2.3408	6.0811
C	0.2608	3.2406	2.4483
C	-1.7749	3.0124	1.6787
C	-2.7689	2.6250	-0.5682
C	-1.9646	2.4915	-2.6233
C	0.3195	2.5862	-3.6338
C	2.3593	2.7355	-2.8433
C	1.9405	-2.5917	3.8970
C	3.3463	2.9981	-0.5682
C	2.7390	-3.2246	4.8431
C	2.5405	3.1804	1.4798
C	3.1395	-4.5320	4.6524
C	-0.6244	3.3626	3.5774
C	2.7396	-5.2208	3.5329
C	-1.8832	3.2234	3.1026
C	1.9253	-4.6123	2.5823
C	-3.8727	2.3437	-1.4447
C	1.5283	-3.3193	2.7889
C	-3.3868	2.2777	-2.6978
C	1.2107	2.4800	-4.7490
C	2.4678	2.5805	-4.2633
C	4.4785	3.0555	0.3259
C	3.9814	3.1617	1.5877
C	-2.8600	2.7742	0.8156
C	-1.0909	2.4757	-3.7009
C	3.4402	2.8130	-1.9468
C	1.6627	3.2564	2.5474
C	-4.2248	2.7154	1.4251
C	-5.1594	3.7314	1.1491
C	-6.4367	3.7027	1.6725
C	-6.8031	2.6651	2.5070
C	-5.9125	1.6548	2.8237
C	-4.6199	1.6620	2.2638
C	-4.0900	-0.7031	2.6993
C	-1.6598	2.2748	-5.0783
O	5.0738	-1.3073	-3.4512
C	-1.9056	3.3712	-5.9062
C	-2.3567	3.1933	-7.1951
C	-2.5473	1.9261	-7.6973
C	-2.3341	0.8325	-6.8964
Cl	-2.7131	-7.4138	3.3065
C	-1.9305	0.9932	-5.5737
C	-2.8429	-0.9915	-4.5171
Cl	-6.3544	-4.9576	-0.1619
Cl	3.2288	-6.8723	3.2795
C	4.8207	2.5948	-2.5143
C	5.5655	3.6640	-3.0312
C	2.2388	3.3253	3.9359
C	2.8363	4.5107	4.3831
C	3.3575	4.6140	5.6623
C	2.2094	2.2203	4.7931
C	2.1637	-0.2352	4.6491
C	-2.0052	6.1797	-2.0151
C	-1.7607	6.1381	0.6378
H	3.9980	-5.9972	0.3052
H	4.1984	-5.7518	-3.7339
H	4.2539	-3.4284	-3.5979
S	-0.7620	6.4735	-0.7895
N	-0.4539	3.0713	1.3013
N	-1.6158	2.7053	-1.3013
N	1.0228	2.7642	-2.4735
N	2.1778	3.0986	0.1521
N	-3.7196	0.6230	2.5692
N	-3.0467	-1.5168	3.0367
N	-1.8067	-0.1333	-4.7371
N	-2.5764	-1.9430	-3.5741
N	4.7092	0.2642	-1.8333
N	4.2462	-1.9186	-1.3889
N	1.6475	1.0033	4.3455
N	1.5051	-1.2556	3.9883
O	-5.2186	-1.0805	2.5108
O	-3.9096	-0.9054	-5.1084
O	3.0820	-0.4189	5.4193
O	0.2426	5.3459	-0.8951
*