! UKS B3LYP ma-def2-SVP OPT NumFreq
%basis

end 

%scf
  maxiter 200
end

%pal 
	nprocs 16
end
* xyz 0 1
C	-1.5976	4.9874	0.2330
C	-0.5776	5.9027	0.3710
C	-0.8495	7.2763	0.4818
C	-2.1536	7.7065	0.4459
C	-3.1901	6.7913	0.3209
C	-2.9159	5.4317	0.1877
H	-1.1647	-0.3337	-9.4489
H	-0.7002	0.9699	-10.2536
H	-1.6924	1.1099	-9.0064
H	2.4231	-2.3030	-7.1498
H	2.1055	-3.8344	-7.4899
H	1.6383	-3.2119	-6.0903
C	-0.1278	-0.0040	-6.8297
C	-0.2114	-1.3368	-6.5979
C	-0.9291	0.6134	-9.3688
C	1.7712	-3.0273	-7.0441
H	3.8972	-3.1088	6.2156
H	5.4029	-3.3456	6.7043
H	5.1195	-2.7460	5.2481
H	3.6447	2.8743	7.4356
H	4.3051	1.5083	7.9480
S	0.4950	0.7938	-8.2555
S	0.3096	-2.5712	-7.7361
Zn	-0.5126	0.0870	0.0895
H	-2.4258	2.5675	-4.0740
H	-3.1625	-2.4570	-3.5021
H	-3.1960	-4.0508	-1.5521
H	-0.9439	-4.0164	3.3052
H	0.1871	-2.2724	4.6743
H	0.1360	2.8653	4.3755
H	-1.0663	-5.3658	-0.7202
H	-1.6918	-7.5910	-0.4359
H	-3.1074	-8.2148	1.3144
H	-3.8612	-6.5739	2.8422
H	-3.2878	-4.3487	2.5267
C	3.7557	-0.2560	5.7864
C	3.8207	1.0730	5.5583
C	4.8145	-2.7638	6.1793
C	4.4841	2.3778	7.5323
H	1.8743	0.3232	-0.1134
H	1.5340	-0.0116	-1.4236
C	-1.5545	2.8564	-1.0282
C	-2.0380	3.4535	-2.2229
C	-2.1264	2.4695	-3.1784
S	4.8551	-1.1252	6.8456
C	-1.6696	1.2550	-2.5392
S	5.1324	2.1587	6.1096
C	-1.5826	-0.0842	-3.1252
C	-1.9032	-1.2490	-2.3061
C	-2.7169	-2.3412	-2.6719
C	-2.7433	-3.2157	-1.5952
C	-1.9625	-2.6200	-0.5683
C	-1.6747	-3.1890	0.6899
C	-1.0003	-2.5576	1.7415
C	-0.7268	-3.1355	3.0276
C	-0.0983	-2.1872	3.7732
C	0.0498	-1.0338	2.9332
C	0.6929	0.2468	3.3051
C	0.1586	1.4994	2.7344
C	-0.0672	2.7113	3.4605
C	-0.7585	2.9315	1.3566
C	-1.2873	3.5018	0.1834
C	-1.2202	-0.2637	-4.4398
H	-2.2619	4.3688	-2.3395
C	-2.1154	-4.6224	0.8818
C	-1.6419	-5.6090	-0.0043
C	-2.0130	-6.9329	0.1670
C	-2.8487	-7.3071	1.2093
C	-3.3090	-6.3256	2.1106
C	-2.9551	-5.0068	1.9290
C	1.7096	0.2977	4.2406
H	-0.8750	4.4922	2.7972
H	5.1014	2.8883	8.0977
S	-0.8201	1.0255	-5.5698
S	-0.9835	-1.8784	-5.1312
H	0.3226	5.5997	0.3933
H	-0.1390	7.9013	0.5799
H	-2.3472	8.6345	0.5061
S	2.4208	-1.1022	5.0363
H	-4.0903	7.0942	0.3242
H	-3.6255	4.8105	0.0686
S	2.5249	1.8085	4.6651
N	-1.3353	1.4778	-1.2527
N	-1.4639	-1.3992	-1.0282
N	-0.4987	-1.2451	1.7242
N	-0.2788	1.6318	1.4786
O	1.3947	-0.0498	-0.6440
C	-0.6228	3.5973	2.6024
*