! UKS B3LYP ma-def2-SVP OPT NumFreq
%basis

end 

%scf
  maxiter 200
end

%pal 
	nprocs 16
end
* xyz 0 1
H	-6.3307	4.3446	-5.7025
H	-7.3665	3.2347	-5.1900
Ni	0.0267	-0.0446	-0.0029
H	-6.4477	2.9445	-6.4683
H	-3.5246	-3.0922	-1.9815
H	0.0185	-4.9393	1.4090
H	1.7763	-3.9009	2.8196
C	-2.3907	-0.1378	-1.7731
C	-3.3800	-1.0580	-2.2698
H	-4.1197	-0.8420	-2.8255
H	-4.3089	2.1027	-0.4867
C	-1.9670	-4.5432	-0.4135
C	2.3455	4.3061	-0.0425
C	-1.4506	-5.4661	-1.3316
C	3.4946	4.3955	-0.8331
C	-2.1462	-6.6641	-1.5491
C	4.1920	5.6003	-0.8792
C	-3.3155	-6.9543	-0.8795
C	3.7727	6.7103	-0.1664
H	-1.8041	-7.2913	-2.1736
C	-3.7783	-6.0589	0.0716
C	2.6298	6.6030	0.5934
H	-4.5579	-6.2721	0.5713
C	-3.1235	-4.8458	0.3135
C	1.9028	5.4133	0.6699
H	-4.5455	-4.2269	1.6681
C	-3.6768	-3.8982	1.3539
C	3.9833	3.2127	-1.6271
C	-0.1621	-5.2144	-2.0763
C	0.6579	5.3762	1.5220
H	-3.7885	-3.0083	0.9581
H	-3.0565	-3.8445	2.1116
H	4.9758	5.6609	-1.4142
C	-4.0985	-8.2100	-1.1985
C	4.5500	8.0142	-0.1957
C	3.0534	-1.6150	3.5384
H	-0.0861	-4.2599	-2.2846
H	2.3266	7.3595	1.0794
C	2.5920	-1.5669	4.8540
H	-0.1583	-5.7302	-2.9094
H	4.3234	2.5263	-1.0145
C	3.4712	-1.8708	5.8908
H	0.5961	-5.4881	-1.5202
H	4.6994	3.4987	-2.2297
C	4.7975	-2.2105	5.6503
H	3.2428	2.8427	-2.1508
H	-4.5778	-8.0890	-2.0439
H	-0.1334	5.4559	0.9482
H	-4.7422	-8.3847	-0.4798
C	5.2223	-2.2807	4.3442
H	0.6758	6.1203	2.1602
H	-3.4823	-8.9679	-1.2756
C	4.3765	-1.9905	3.2687
C	1.1745	-1.1762	5.1732
H	3.1557	-1.8461	6.7862
H	0.6210	4.5275	2.0128
C	4.9098	-2.0386	1.8587
H	6.1211	-2.5351	4.1659
H	5.4962	7.8354	-0.0107
H	0.9298	-0.3813	4.6549
C	5.7571	-2.4526	6.7923
H	4.1940	8.6221	0.4864
H	1.0991	-0.9768	6.1301
H	4.4604	8.4282	-1.0797
H	0.5737	-1.9148	4.9417
H	4.4479	-2.7428	1.3583
H	5.8697	-2.2298	1.8794
H	4.7592	-1.1735	1.4232
H	6.1983	-3.3191	6.6705
H	5.2646	-2.4540	7.6382
H	6.4324	-1.7429	6.8066
N	-0.2816	1.6759	-0.8831
N	1.5044	0.7285	0.9888
C	3.2389	1.0684	2.4978
C	3.1111	2.2072	1.8083
C	2.0285	2.0037	0.8711
C	1.6005	3.0008	0.0133
C	0.4890	2.8234	-0.7914
C	-0.0585	3.8701	-1.6041
C	-1.1814	3.3818	-2.1625
N	0.3529	-1.7711	0.8439
C	-1.3124	2.0216	-1.7253
N	-1.4777	-0.8112	-0.9647
C	-2.3489	1.1894	-2.1291
H	3.8603	0.9020	3.1982
C	-3.0625	-2.2821	-1.8020
H	3.6313	2.9967	1.9117
C	-1.9007	-2.1294	-0.9825
H	0.3023	4.7407	-1.7244
C	-1.3383	-3.1788	-0.2708
C	-3.4190	1.7479	-3.0226
H	-1.7742	3.8495	-2.7385
C	-0.2773	-2.9780	0.5943
C	-4.6879	2.0271	-2.5058
H	-6.5174	2.7712	-2.9933
C	0.2767	-4.0247	1.4099
C	-5.6609	2.5621	-3.3475
C	-5.4102	2.7987	-4.6901
H	-3.9803	2.6941	-6.1021
C	1.2343	-3.4594	2.1748
H	-1.8589	1.6502	-5.9531
C	1.2801	-2.0689	1.8331
C	-4.1608	2.5222	-5.1843
C	2.1540	-1.1721	2.4178
C	-3.1439	1.9941	-4.3818
H	-1.4506	0.8497	-4.6306
C	2.2626	0.1373	1.9877
C	-1.7845	1.7025	-4.9771
H	-1.1617	2.4190	-4.7365
C	-5.0238	1.7561	-1.0585
H	-5.8676	2.1990	-0.8306
C	-6.4841	3.3818	-5.5933
H	-5.1132	0.7906	-0.9196
*