! UKS B3LYP ma-def2-SVP OPT NumFreq
%basis

end 

%scf
  maxiter 200
end

%pal 
	nprocs 16
end
* xyz 0 1
C	-5.9240	4.6414	1.7796
C	-4.5810	5.0024	1.7803
C	-3.5891	4.0997	1.4180
C	-6.9819	5.6120	2.2453
C	-2.6048	-5.5989	4.7234
C	-1.3308	-5.0470	4.8114
C	-3.0500	-6.6657	5.6967
H	3.0621	6.9831	-5.7186
H	3.6873	5.7974	-6.5907
H	2.2321	6.3650	-6.9378
H	3.3852	1.5925	-3.3878
H	4.3051	-0.5616	-2.5693
H	2.1095	-4.6927	-0.0032
H	0.1758	-4.9203	1.5297
H	-0.0370	-3.6971	4.0087
H	1.1397	2.0671	-5.2208
H	3.7483	-2.8386	-3.3075
H	5.7651	-3.9480	-3.6260
H	6.1319	-4.4316	0.3682
H	4.1683	-3.2304	0.6997
Fe	-0.1276	-0.1041	-0.1378
H	7.6601	-5.1104	-2.8288
H	-3.2929	-1.4693	3.6082
H	8.1912	-4.5673	-1.4198
H	-4.0579	0.8012	2.9607
H	7.3947	-5.9534	-1.4942
H	-3.1772	3.8139	-1.3224
H	-1.3372	3.9549	-2.9853
H	-3.6388	-3.8316	2.1682
H	-4.3331	-5.4841	3.6542
C	1.6149	1.0828	-2.2984
C	2.8601	6.1627	-6.2137
C	2.4149	-0.8320	-1.5916
H	-5.5143	1.5576	0.7587
C	1.4915	-2.6523	-0.2473
H	-7.1656	3.0860	1.3554
C	2.9421	0.9638	-2.8306
C	3.4410	-0.2109	-2.3885
C	1.4877	-4.0120	0.2267
C	0.4320	-4.1364	1.0591
C	0.7599	2.1430	-2.5706
C	2.5059	-2.1067	-1.0389
C	-1.9480	-1.3330	1.9394
C	1.2224	3.1963	-3.5249
C	-2.6357	0.6714	1.3651
C	1.3737	2.9229	-4.8830
C	-2.0995	2.1591	-0.4913
C	1.8646	3.8967	-5.7454
C	-0.4757	2.2877	-1.9564
C	-0.2337	-2.8619	1.1003
C	3.7482	-2.9012	-1.2720
C	-2.9721	-0.9517	2.8789
C	4.2392	-3.1420	-2.5533
C	-3.3900	0.2849	2.5245
C	5.4365	-3.8193	-2.7438
C	-2.4121	3.2522	-1.3683
C	6.1658	-4.3144	-1.6633
C	-1.4095	3.3292	-2.2738
C	5.6598	-4.0923	-0.3833
C	4.4805	-3.3859	-0.1843
C	7.4670	-5.0510	-1.8695
C	0.8252	0.6518	1.0918
C	-1.2999	-2.5628	1.9422
C	-2.8478	1.8350	0.6344
H	2.3114	6.2823	-3.5890
C	-1.7562	-3.6017	2.9178
H	1.4318	4.6815	-2.1405
C	-3.0407	-4.1413	2.8380
C	-3.4559	-5.1272	3.7274
C	-0.9106	-4.0614	3.9261
N	1.3067	-0.0070	-1.5084
N	0.3940	-1.9679	0.2457
C	-3.9207	2.7940	1.0475
Cl	1.6987	2.1308	0.9109
C	-5.2671	2.4362	1.0237
Cl	1.0170	0.0280	2.7003
C	-6.2527	3.3491	1.3820
H	-4.3371	5.8853	2.0346
H	-2.6795	4.3725	1.4220
H	-7.8638	5.1910	2.1770
H	-6.8103	5.8594	3.1774
H	-6.9579	6.4154	1.6840
N	-1.7259	-0.3199	1.0279
N	-0.9389	1.5238	-0.8991
H	-0.7376	-5.3496	5.4892
C	2.2424	5.1500	-5.2802
H	-3.9686	-6.9361	5.4869
C	2.0720	5.4262	-3.9260
H	-2.4555	-7.4417	5.6252
C	1.5568	4.4683	-3.0581
H	-3.0136	-6.3103	6.6098
H	1.9429	3.7014	-6.6722
*