! UKS B3LYP ma-def2-SVP OPT NumFreq
%basis

end 

%scf
  maxiter 200
end

%pal 
	nprocs 16
end
* xyz 0 1
C	3.4534	5.8706	-0.2363
H	-4.4515	-6.6648	-2.4043
H	-6.3576	-6.3915	-1.2481
Zn	-0.3050	-0.1802	-1.0622
H	-0.2514	-4.0297	2.4950
H	3.4467	-0.2110	2.3792
H	3.8202	1.9027	1.1305
H	2.6377	-3.8618	1.7786
H	3.6958	-5.0166	3.4816
H	4.4296	2.5743	-1.6308
H	-3.6513	2.0547	-7.8114
H	-2.3828	0.8962	-6.0795
C	-2.5944	0.2862	-3.0409
C	-0.5248	-3.5456	1.7482
C	0.1057	-2.4216	1.1498
C	1.1863	-1.6577	1.6162
C	1.7410	-0.4479	1.2154
C	2.9054	0.1304	1.7048
C	3.1124	1.3132	1.0049
C	2.0417	1.4671	0.0496
C	1.9317	2.4567	-0.8361
C	0.9221	2.4931	-1.8045
C	-0.2840	3.2487	-3.4645
C	-0.8753	1.9838	-3.0133
C	-2.0930	1.5520	-3.5758
C	1.9307	-2.4020	2.7249
C	2.5993	-3.4859	2.6284
C	3.2917	-4.1948	3.6424
C	-2.7892	2.2021	-4.5951
C	-3.5781	2.3812	-6.9442
C	-2.8307	1.6872	-5.8841
N	-2.0551	-0.5029	-2.0740
N	-0.1353	1.5753	-1.9706
N	1.2185	0.3123	0.2053
N	-0.6239	-1.9310	0.0332
O	1.1568	-1.2128	-2.6788
H	5.9525	4.3241	-1.6149
H	3.8560	-3.9971	5.4797
H	2.5896	-2.1884	5.9158
H	0.0572	0.6332	5.7869
H	0.5465	-0.6522	6.5402
H	3.7375	0.6817	8.9864
H	5.0653	2.0724	7.6879
H	4.4242	2.5948	5.5213
H	0.5782	-0.4693	3.7200
H	2.4559	1.7273	4.6524
C	3.3271	-3.6258	4.8070
C	2.6318	-2.5438	5.0573
C	1.9775	-1.9515	4.0389
C	0.7958	0.0026	5.8748
C	1.9174	0.6845	6.2992
C	3.4802	0.8916	8.1178
C	4.2760	1.7245	7.3396
C	3.8917	2.0379	6.0411
C	2.7132	1.5174	5.5210
N	2.3016	0.3711	7.5977
N	1.0414	-0.7744	4.3777
H	5.3424	6.3855	-0.7439
H	-4.4093	-0.0002	-4.2361
H	-4.6898	-2.0709	-3.0900
H	-2.2180	-4.4289	1.1180
H	-2.7200	-4.8888	-2.3463
H	-6.7487	-4.6136	0.0223
H	-5.1141	-2.9113	0.1575
C	-3.8494	-0.3518	-3.5773
C	-4.0017	-1.4590	-2.9587
C	-2.8814	-1.5933	-1.9930
C	-2.7708	-2.6362	-0.9876
C	-1.7178	-2.7957	-0.0635
C	-1.6061	-3.7424	0.9791
C	4.7319	5.6841	-0.7493
C	-3.7555	-3.7443	-1.1022
C	-3.5092	-4.8095	-1.8615
C	-4.5808	-5.8943	-1.8993
C	-5.7085	-5.7273	-1.1945
C	-5.9521	-4.6854	-0.4508
C	-4.9597	-3.6547	-0.3792
H	1.4073	4.2943	-2.8800
H	-0.6321	3.7663	-4.1487
H	1.6847	4.9481	0.0963
H	-3.4489	3.6339	-3.3546
H	-4.5687	4.9612	-4.9139
H	-4.6352	4.1059	-7.1594
C	0.8394	3.5658	-2.7662
C	2.9059	3.5872	-0.7689
C	2.5404	4.8232	-0.2472
C	5.0968	4.4491	-1.2726
C	4.1843	3.4007	-1.2819
C	-3.4648	3.3699	-4.2465
C	-4.1587	4.1600	-5.1486
C	-4.1856	3.6124	-6.5152
H	3.2092	6.6971	0.1123
*