! UKS B3LYP ma-def2-SVP OPT NumFreq
%basis

end 

%scf
  maxiter 200
end

%pal 
	nprocs 16
end
* xyz 0 1
Zn	-0.3474	0.4147	-1.1750
H	0.0545	2.7663	3.0520
H	1.4924	1.0561	2.5412
H	1.6669	0.0671	6.3986
H	3.6424	-0.2820	3.9420
H	2.8553	-1.3184	4.8165
H	0.9619	-2.5956	2.1005
H	0.4454	-1.5755	3.1666
H	0.1278	-2.2750	5.4076
H	0.2046	-3.9324	7.0397
H	1.2429	-5.9037	6.6399
H	2.1974	-6.2947	4.5908
H	2.1242	-4.6738	2.9651
H	4.5795	-2.6782	3.7360
H	4.4067	-2.7390	-0.8665
H	1.8990	-4.1272	-0.4042
H	-2.4951	3.6282	-5.1253
H	-0.0799	-4.6887	-1.6971
H	-4.0988	4.7755	-6.3682
H	-1.2892	-4.3437	-4.3725
H	-6.2034	5.0569	-5.5712
H	-2.4497	-6.2717	-4.8614
H	-6.8333	4.0449	-3.6265
H	-5.3326	2.7447	-2.4541
H	-4.2593	-6.8738	-3.6645
H	-4.9574	-5.5425	-1.9277
H	-2.3328	4.9934	-2.4275
H	-3.8161	-3.6225	-1.4093
H	-0.2841	5.5440	-1.2415
H	-3.9679	-1.8961	-3.9963
H	2.4924	5.1828	-2.0124
H	-4.4932	0.4676	-4.2516
H	3.6040	7.1419	-1.4661
H	3.7192	7.8157	0.7429
H	2.9292	6.4465	2.3867
H	1.8205	4.5185	1.8795
H	3.8099	2.7474	0.7462
C	0.4506	1.6109	5.9916
C	-0.0397	2.4091	4.9979
H	4.2950	0.3972	0.9952
H	-1.9297	0.7273	3.1644
H	-1.8407	-0.8002	3.5066
H	-3.2053	-0.1765	3.0560
H	-2.0780	-1.8325	0.0747
C	0.3669	2.2116	3.7306
H	-3.2978	-1.8393	1.0577
C	1.2446	1.1928	3.4277
H	-1.9262	-2.4563	1.5036
C	1.3458	0.5975	5.7051
C	1.7769	0.3539	4.4233
C	2.7751	-0.6987	4.0761
C	1.1591	-2.1992	2.9629
C	1.1452	-3.2897	3.9995
C	0.5571	-3.0800	5.2293
C	0.6024	-4.0839	6.2121
C	1.2097	-5.2516	5.9775
C	1.7804	-5.4829	4.7662
C	1.7367	-4.5020	3.7942
C	3.4399	-2.0991	2.1599
C	4.5306	-2.6917	2.8081
C	5.5183	-3.2870	2.0900
C	5.5026	-3.3317	0.7209
C	4.4364	-2.7269	0.0626
C	3.4260	-2.1126	0.7667
C	2.3405	-1.3752	0.0265
C	1.3424	-2.1072	-0.6336
C	1.2848	-3.5224	-0.7570
C	0.1976	-3.8323	-1.4643
C	-0.4621	-2.6119	-1.7991
C	-1.6888	-2.5077	-2.4742
C	-2.4061	-3.7646	-2.8165
C	-2.7307	2.2373	-2.9067
C	-2.0274	-4.5751	-3.8593
C	-3.7637	3.0342	-3.6587
C	-2.7324	-5.7359	-4.1564
C	-3.3763	3.6755	-4.8287
C	-3.7986	-6.0931	-3.4556
C	-4.2087	-5.3030	-2.4241
C	-4.3344	4.3940	-5.5545
C	-5.5926	4.5415	-5.0959
C	-3.5194	-4.1516	-2.1129
C	-2.3345	-1.2913	-2.7814
C	-5.9660	3.9421	-3.9420
C	-3.5002	-1.1871	-3.6196
C	-5.0586	3.1736	-3.2328
C	-1.7377	2.9517	-2.2025
C	-3.7917	0.1077	-3.7597
C	-2.8074	0.8396	-3.0005
C	-1.7011	4.3940	-2.1020
C	-0.5807	4.6862	-1.4491
C	0.1016	3.4645	-1.1178
C	1.3389	3.3846	-0.4761
C	2.0299	4.6443	-0.1322
C	2.5691	5.4385	-1.1211
C	3.2288	6.6183	-0.7972
C	3.3195	7.0066	0.5217
C	2.8222	6.2002	1.4949
C	2.1713	5.0434	1.1967
C	1.9828	2.1629	-0.1491
C	3.2619	2.0438	0.4813
N	-0.6627	2.3997	-1.6038
C	3.5255	0.7585	0.6188
C	2.4208	0.0157	0.0873
C	-1.9227	-0.4457	1.5230
C	-2.2542	-0.1467	2.9366
C	-2.3432	-1.7581	0.9928
N	2.4034	-1.4510	2.8503
N	0.2482	-1.5538	-1.3078
N	-1.9366	-0.0439	-2.4159
H	0.1784	1.7502	6.8708
H	-0.6488	3.0843	5.1955
N	1.4872	0.9059	-0.3996
H	6.2286	-3.6780	2.5442
O	-1.3328	0.3715	0.8371
H	6.1832	-3.7538	0.2481
*