! UKS B3LYP ma-def2-SVP OPT NumFreq
%basis

end 

%scf
  maxiter 200
end

%pal 
	nprocs 16
end
* xyz 0 1
C	-0.8966	0.9879	-5.3221
C	-1.3227	2.0614	-6.0862
C	-1.8008	1.8515	-7.3796
C	-1.8322	0.5943	-7.9076
C	-1.3978	-0.4555	-7.1879
C	-0.9651	-0.2870	-5.8783
H	-5.4093	-2.3551	5.3076
H	-6.4487	-4.0372	4.1619
H	-5.8095	-4.5483	2.0085
H	-4.1159	-3.3411	1.0370
H	1.0020	-3.4036	5.7670
C	0.4939	2.7763	2.2317
C	0.8708	4.0885	2.4952
C	0.5485	5.0708	1.5673
C	-0.0880	4.7558	0.3720
C	-0.4554	3.4324	0.1433
N	-2.1372	-0.0591	-0.1315
N	0.0303	1.0169	-1.6829
N	-0.2238	-0.8265	1.8875
Zn	-0.1570	0.4433	0.2757
N	-0.1713	2.4339	1.0668
H	-3.1666	3.2237	-3.2158
Cl	-5.6554	0.9893	-1.6092
H	-4.6827	3.8098	-4.8621
Cl	-5.8002	-0.3327	1.3109
C	2.4142	1.6753	-1.6284
H	-5.6879	2.1677	-6.1317
C	2.6819	1.3553	-0.2862
C	2.4224	-4.8133	5.6065
H	-5.1880	-0.0281	-5.7730
H	-3.6829	-0.6355	-4.1230
C	3.7555	1.8527	0.5518
C	3.2378	-5.4669	4.7214
H	-3.6556	-1.1753	4.3247
C	3.7036	1.1816	1.7230
C	3.1982	-5.1594	3.3737
C	2.5631	0.2831	1.6643
C	2.3227	-4.1709	2.9281
C	2.1274	-0.6330	2.6175
H	-1.3855	-1.3028	-7.5710
C	4.2417	-1.5290	6.2253
H	-1.5522	-3.2911	5.5839
C	4.7444	-1.9589	5.0339
H	-2.2160	-5.3207	6.4913
C	4.1065	-1.6352	3.8416
H	-2.5629	-7.1515	5.1101
H	-2.2460	-6.9540	2.8217
H	-1.5822	-4.9245	1.9107
H	1.6698	0.0406	5.0958
H	1.5797	2.7650	-5.9601
H	-1.2899	2.9237	-5.7370
C	2.9346	-0.9017	3.8544
H	-2.0999	2.5726	-7.8840
C	2.4511	-0.4630	5.0674
H	-2.1559	0.4630	-8.7701
C	3.1149	-0.7617	6.2504
H	-0.7217	-1.0279	-5.3717
C	3.3881	2.5001	-2.4017
C	3.0343	3.7673	-2.8148
C	3.9208	4.5484	-3.5476
C	0.8777	-1.2903	2.5580
H	0.6933	2.1139	2.8522
C	5.1664	4.0335	-3.8929
C	0.5403	-2.5000	3.2781
H	1.3298	4.3034	3.2750
C	5.5161	2.7813	-3.4772
C	-0.8037	-2.6962	3.1177
H	0.7629	5.9568	1.7506
C	4.6446	2.0202	-2.7264
C	-1.2817	-1.6265	2.2636
H	-0.2655	5.4132	-0.2600
C	2.0864	1.2191	-4.7774
H	-0.8993	3.2124	-0.6428
C	2.1684	2.0502	-5.8690
C	-2.6121	-1.3878	1.8768
C	3.1436	1.8115	-6.8461
C	4.0450	0.8005	-6.7067
C	3.9494	-0.0331	-5.6430
C	2.9619	0.1581	-4.7039
C	-2.9959	-0.5517	0.8165
C	-4.3426	-0.2043	0.4131
C	-3.6924	-2.1576	2.5711
C	-4.2634	0.3956	-0.7929
C	-4.0858	-1.8514	3.8542
C	-2.8675	0.4630	-1.1628
C	-5.1361	-2.5638	4.4450
C	-2.3157	0.8804	-2.3972
C	-5.7603	-3.5611	3.7558
C	-0.9375	0.9979	-2.6558
C	-5.3847	-3.8685	2.4805
C	-0.3120	1.1666	-3.9683
C	-4.3624	-3.1461	1.9110
C	1.0252	1.3278	-3.7465
C	1.4991	-3.4998	3.8152
C	1.2205	1.3116	-2.3003
C	1.5565	-3.8385	5.1601
H	2.4538	-5.0282	6.5128
H	3.8224	-6.1205	5.0284
H	3.7473	-5.6081	2.7690
H	2.2913	-3.9597	2.0233
H	4.6679	-1.7577	7.0189
H	5.5188	-2.4738	5.0197
H	4.4698	-1.9127	3.0311
C	-3.2636	1.2291	-3.4973
C	-3.5722	2.5613	-3.7273
N	1.9616	0.4494	0.4354
C	-4.4792	2.9150	-4.7122
C	-5.0774	1.9340	-5.4689
C	-4.7810	0.6280	-5.2536
C	-3.8768	0.2631	-4.2654
Cl	4.7323	1.4986	3.0565
Cl	4.8516	3.1367	0.2523
C	-1.5012	-3.9060	3.6573
C	-1.6909	-4.0247	5.0293
H	2.7912	-0.4393	7.0583
C	-2.0885	-5.2407	5.5733
C	-2.2964	-6.3379	4.7457
C	-2.1067	-6.2192	3.3738
C	-1.7091	-5.0032	2.8297
H	2.1943	4.1035	-2.6013
H	3.6831	5.4094	-3.8070
H	5.7564	4.5384	-4.4042
H	6.3506	2.4376	-3.7013
H	4.9042	1.1754	-2.4341
H	3.1764	2.3526	-7.6029
H	4.7198	0.6830	-7.3340
H	4.5504	-0.7354	-5.5484
H	2.8841	-0.4455	-3.9994
*