! UKS B3LYP ma-def2-SVP OPT NumFreq
%basis

end 

%scf
  maxiter 200
end

%pal 
	nprocs 16
end
* xyz 0 1
Fe	-0.0652	-1.1304	0.0806
C	-5.1812	-2.9367	-1.4797
C	-5.8778	1.8353	-1.1104
H	2.1657	1.1979	-3.8790
C	-5.0526	3.0920	-0.8365
C	5.0394	-2.7604	1.7483
H	-2.2144	0.7905	4.0050
C	-5.3069	4.0785	-1.9876
N	-2.1412	0.8281	4.8809
H	-4.3144	0.8414	-1.5985
C	5.8249	1.9697	1.0014
C	-5.5704	3.6785	0.4718
H	-3.8749	-1.3201	3.5042
H	-2.5411	0.1652	7.4109
C	5.0592	3.2838	0.8214
C	-3.5529	2.8365	-0.7071
C	1.3452	-1.0612	-4.6173
H	-5.0351	-1.3427	1.3095
H	-2.3000	-1.9340	8.4107
C	5.6297	3.9755	-0.4111
H	-3.4757	-1.3795	-3.7244
C	1.8617	-0.0147	-5.3854
H	-1.6583	-3.7758	7.1357
C	5.3253	4.1425	2.0571
H	-1.3057	-1.1419	-4.8797
H	-1.1346	-3.4957	4.8902
C	2.1666	-0.2292	-6.7372
O	-2.0599	2.2690	6.6270
H	3.7277	-0.6185	-3.3093
C	1.9583	-1.4695	-7.3010
H	-0.4904	3.4357	3.9851
C	1.4579	-2.5120	-6.5503
H	-0.9052	4.3297	5.2472
C	1.1663	-2.3046	-5.2176
C	2.2365	2.4418	-5.3268
H	-0.6485	1.5770	-1.5047
C	2.5106	3.6154	-4.3886
H	-3.2398	4.3892	6.0409
H	0.4896	3.5857	1.7678
C	1.2155	4.4203	-4.2797
H	-4.3934	3.6564	5.2074
H	0.5544	1.1781	2.2453
C	2.9746	3.1936	-2.9932
H	-0.6783	4.1374	-1.7371
C	3.5872	4.4786	-5.0375
H	0.2783	5.5123	0.4941
H	-0.2233	6.1772	-0.9247
H	-1.8839	-3.7928	-0.1454
H	-1.0063	-5.9741	-0.8768
H	1.9920	-3.4250	-0.4484
H	2.6959	-5.7704	-1.1783
H	0.6244	-7.4990	-1.6860
H	2.2318	-7.7677	-1.9071
H	-7.5823	-0.1743	-2.1435
H	-8.2576	-2.3923	-2.3454
H	-6.7734	-4.1294	-1.9274
C	3.5549	3.0872	0.6487
H	-4.5749	-3.6485	-1.3127
H	3.7484	2.5955	-3.0722
H	-4.9819	3.6904	-2.8276
H	4.4342	3.9874	-5.0547
H	-4.8329	4.9182	-1.8093
H	-6.2678	4.2562	-2.0593
H	-6.5258	3.8799	0.3850
H	-5.0805	4.5023	0.6765
H	-5.4369	3.0312	1.1946
H	4.4134	-3.4703	1.6676
H	-3.3966	2.1541	-0.0225
H	6.5912	4.1204	-0.2879
H	-3.1011	3.6677	-0.4481
H	5.1834	4.8390	-0.5376
H	-3.1996	2.5247	-1.5660
C	-2.9866	2.8102	3.1028
H	5.4815	3.4131	-1.1989
H	2.5157	0.4793	-7.2633
H	2.1631	-1.6087	-8.2187
H	1.3153	-3.3627	-6.9470
H	0.8357	-3.0289	-4.6980
H	4.8917	5.0144	1.9488
H	0.9381	4.7145	-5.1732
N	5.0966	0.8954	1.4017
H	1.3646	5.2040	-3.7084
H	0.5142	3.8601	-3.8882
H	2.2474	2.7256	-2.5334
H	3.2286	3.9874	-2.4786
O	7.0246	1.9097	0.8350
C	2.4958	-1.5229	3.4508
C	1.3086	-1.5255	4.0866
H	3.6992	5.3030	-4.5224
H	3.3207	4.7004	-5.9544
C	4.6260	-1.4601	1.4924
N	-1.8254	-1.2550	1.0131
N	-1.0059	-1.0587	-1.6672
N	1.6836	-0.9410	-0.8404
C	5.5543	-0.4235	1.6242
N	0.8583	-1.3000	1.8284
N	-0.0932	0.8569	0.2842
N	-0.1308	3.0147	-0.1190
N	0.0462	-3.0974	-0.1753
N	0.8366	-5.0628	-0.7706
N	2.0985	1.2205	-4.7555
H	3.1314	3.9506	0.4621
H	3.1781	2.7086	1.4714
H	3.3894	2.4738	-0.0985
N	-5.1740	0.7240	-1.4515
O	2.1037	2.6187	-6.5288
O	-7.0951	1.8449	-1.0231
C	6.8737	-0.7014	1.9842
C	7.2569	-2.0090	2.2312
H	-1.3135	4.7881	3.7691
C	6.3500	-3.0473	2.1203
H	-3.6662	4.9493	4.6045
H	-2.3026	2.2588	2.6673
H	-3.1620	3.6055	2.5570
H	-3.8127	2.2927	3.1986
H	3.3531	-1.6087	3.8514
H	1.1715	-1.5973	5.0242
C	3.9487	-0.7925	-1.2728
C	-2.0563	-1.2873	2.3740
C	-3.0727	-1.2938	0.4422
C	-2.3560	-1.2284	-1.9024
C	-0.4355	-1.0301	-2.9224
C	1.9094	-0.8256	-2.1952
C	-1.4976	-1.5009	4.7868
C	2.9353	-0.9599	-0.2694
C	-1.9485	-0.4063	5.5376
C	2.2175	-1.3671	2.0460
C	-2.2476	-0.5743	6.8927
C	0.2871	-1.4004	3.0824
C	-2.1152	-1.8282	7.4841
C	-3.4652	-1.3122	2.6480
C	-1.7190	-2.9149	6.7362
H	7.5063	0.0040	2.0586
C	-4.0968	-1.3221	1.4533
C	-1.4115	-2.7451	5.4013
H	8.1545	-2.1943	2.4810
C	-2.6249	-1.2768	-3.3144
C	-2.2278	2.0712	5.4343
H	6.6171	-3.9427	2.2951
C	-1.4471	-1.1501	-3.9404
C	-2.4928	3.2402	4.4797
C	3.3182	-0.7206	-2.4586
C	-1.1831	4.0180	4.3593
C	-3.5431	4.1399	5.1425
H	6.2917	4.2703	2.1642
C	-3.3352	-1.3447	-0.9229
H	4.9643	3.6932	2.8494
C	0.9227	-0.9141	-3.1776
C	3.2048	-1.2197	1.0767
H	4.2384	1.0366	1.5399
C	-1.0730	-1.3645	3.3561
C	-0.3508	1.7620	-0.6222
C	0.2716	2.8852	1.1650
C	0.3017	1.5682	1.4164
C	-0.3326	4.2072	-0.8544
C	-0.0678	5.4105	-0.3849
C	-0.9687	-3.9888	-0.3044
C	-0.4968	-5.1921	-0.6938
H	4.8866	-0.7429	-1.1264
C	1.1131	-3.7863	-0.4596
C	1.7807	-6.0244	-1.2083
C	1.5240	-7.1963	-1.6367
C	-4.7442	-1.6265	-1.3527
C	-5.6543	-0.5905	-1.5982
C	-6.9676	-0.8787	-1.9722
C	-7.3644	-2.1957	-2.0910
C	-6.4882	-3.2281	-1.8463
*