! UKS B3LYP ma-def2-SVP OPT NumFreq
%basis

end 

%scf
  maxiter 200
end

%pal 
	nprocs 16
end
* xyz 0 1
H	-3.6175	-5.2890	4.3378
H	-4.2201	-3.3731	-4.1310
H	-6.6150	0.7607	0.1377
H	-3.1199	-2.4903	-5.9226
H	-3.1805	6.4617	4.8462
H	-0.8870	6.1304	4.5944
H	2.2790	5.6094	-6.1626
C	-2.8636	5.7936	4.2823
C	-1.4987	5.5909	4.1469
C	-2.9195	-2.1960	-5.0639
Fe	0.0000	0.0000	0.0000
P	2.0720	0.5837	0.8358
P	-2.0720	-0.5837	-0.8358
H	1.2186	-4.9632	-0.2846
H	-1.2186	4.9632	0.2846
H	0.0503	-4.7550	1.8489
H	-0.0503	4.7550	-1.8489
H	-2.2087	-0.8141	4.5143
H	2.2087	0.8141	-4.5143
H	-2.3870	1.6173	4.2283
H	2.3870	-1.6173	-4.2283
H	4.6648	-5.1626	-3.6482
H	-4.6648	5.1626	3.6482
H	-0.3280	-4.3986	6.4163
H	0.3280	4.3986	-6.4163
H	1.0162	0.1199	3.4830
H	-1.0162	-0.1199	-3.4830
H	1.4998	0.8719	5.6025
H	-1.4998	-0.8719	-5.6025
H	3.7250	2.6854	1.9790
H	-3.7250	-2.6854	-1.9790
H	4.7477	0.6430	-0.3265
H	-4.7477	-0.6430	0.3265
H	6.5030	-2.7214	1.0268
H	-6.5030	2.7214	-1.0268
H	4.5410	-3.3774	1.9857
H	-4.5410	3.3774	-1.9857
H	2.6648	-2.0369	1.8393
H	-2.6648	2.0369	-1.8393
C	1.4407	-1.3198	-2.3451
C	-1.4407	1.3198	2.3451
C	1.4007	-2.5938	-1.7880
C	-1.4007	2.5938	1.7880
C	0.8659	-2.8761	-0.5374
C	-0.8659	2.8761	0.5374
C	0.8526	-4.1850	0.0708
C	-0.8526	4.1850	-0.0708
C	0.2149	-4.0684	1.2424
C	-0.2149	4.0684	-1.2424
C	-0.1680	-2.6919	1.3931
C	0.1680	2.6919	-1.3931
C	-0.8792	-2.1742	2.4710
C	0.8792	2.1742	-2.4710
C	-1.2457	-0.8435	2.6248
C	1.2457	0.8435	-2.6248
C	-1.9077	-0.3215	3.7847
C	1.9077	0.3215	-3.7847
C	-2.0148	1.0136	3.6267
C	2.0148	-1.0136	-3.6267
C	1.9220	-3.7305	-2.6218
C	-1.9220	3.7305	2.6218
C	3.2852	-4.0052	-2.7891
C	-3.2852	4.0052	2.7891
C	3.7497	-5.0079	-3.5807
C	-3.7497	5.0079	3.5807
C	1.0700	-4.5643	-3.3304
C	-1.0700	4.5643	3.3304
C	-1.2785	-3.1486	3.5490
C	1.2785	3.1486	-3.5490
C	-0.5265	-3.3535	4.6934
C	0.5265	3.3535	-4.6934
C	-0.8696	-4.2711	5.6714
C	0.8696	4.2711	-5.6714
C	-2.0328	-4.9882	5.5139
C	2.0328	4.9882	-5.5139
C	-2.8289	-4.8051	4.4269
C	2.8289	4.8051	-4.4269
C	-2.4557	-3.8908	3.4531
C	2.4557	3.8908	-3.4531
C	2.3449	1.2828	2.4833
C	-2.3449	-1.2828	-2.4833
C	1.6685	0.7727	3.6010
C	-1.6685	-0.7727	-3.6010
C	1.9553	1.2239	4.8722
C	-1.9553	-1.2239	-4.8722
C	3.5714	2.7203	3.9953
C	-3.5714	-2.7203	-3.9953
C	3.2880	2.2963	2.7010
C	-3.2880	-2.2963	-2.7010
C	3.4938	-0.5526	0.7665
C	-3.4938	0.5526	-0.7665
C	4.6945	-0.1558	0.1467
C	-4.6945	0.1558	-0.1467
C	5.8133	-1.0070	0.2645
C	-5.8133	1.0070	-0.2645
C	5.7473	-2.1830	0.9534
C	-5.7473	2.1830	-0.9534
C	4.5852	-2.5688	1.5286
C	-4.5852	2.5688	-1.5286
C	3.4580	-1.7612	1.4400
C	-3.4580	1.7612	-1.4400
N	0.9607	-0.1689	-1.7458
N	-0.9607	0.1689	1.7458
N	0.2574	-1.9595	0.2941
N	-0.2574	1.9595	-0.2941
Cl	4.4374	-3.0418	-1.9150
Cl	-4.4374	3.0418	1.9150
Cl	-0.6568	-4.3420	-3.2118
Cl	0.6568	4.3420	3.2118
Cl	0.9277	-2.4173	4.9297
Cl	-0.9277	2.4173	-4.9297
Cl	-3.5056	-3.6673	2.0761
H	0.8870	-6.1304	-4.5944
Cl	3.5056	3.6673	-2.0761
H	3.1805	-6.4617	-4.8462
H	-2.2790	-5.6094	6.1626
H	3.1199	2.4903	5.9226
C	2.8636	-5.7936	-4.2823
C	1.4987	-5.5909	-4.1469
H	3.6175	5.2890	-4.3378
H	4.2201	3.3731	4.1310
H	6.6150	-0.7607	-0.1377
C	2.9195	2.1960	5.0639
*