! UKS B3LYP ma-def2-SVP OPT NumFreq
%basis

end 

%scf
  maxiter 200
end

%pal 
	nprocs 16
end
* xyz 0 1
C	-0.3947	-1.8354	-3.9374
H	1.2946	1.8795	3.7055
F	6.6469	4.5564	-4.1080
N	-0.1649	-1.1650	1.6127
H	0.9265	2.6629	1.2255
H	-1.1423	2.6939	0.8043
N	-1.9838	-0.0658	-0.2467
C	1.3219	1.7022	-2.1420
F	-3.3098	-0.2222	-4.3758
C	1.0141	2.4686	-3.3131
F	4.9784	-0.7393	6.2170
C	-0.3148	2.4028	-3.4887
F	5.7231	-3.3433	6.1602
C	-0.8465	1.5993	-2.4387
F	4.7577	-4.9635	4.2158
C	1.3492	-1.7309	-5.5835
F	3.1033	-3.9982	2.3436
C	-2.1958	1.2974	-2.2708
C	-2.7187	0.5295	-1.2588
F	-3.4978	-4.0540	0.7012
C	-4.1174	0.2044	-1.0974
F	-5.3822	-5.5178	1.9048
C	4.2202	0.5875	0.0331
C	2.9030	0.7679	-0.5064
C	-0.0025	-1.7773	-5.3025
F	-5.9763	-2.1342	5.1010
C	2.5905	1.5389	-1.6092
F	-4.0840	-0.6742	3.8959
C	-3.1452	1.8547	-3.2959
C	-3.6579	1.0597	-4.2997
C	-4.5210	1.5497	-5.2616
C	-4.8904	2.8642	-5.2211
C	-4.4093	3.6847	-4.2487
C	-3.5564	3.1606	-3.2914
C	3.7038	2.3146	-2.2617
C	4.0857	3.5508	-1.7876
C	5.0668	4.3055	-2.4047
C	5.6938	3.8295	-3.5125
C	5.3600	2.6110	-4.0052
C	4.3763	1.8718	-3.3740
C	-0.5775	1.8253	2.9666
C	-1.9127	1.7092	3.3504
C	-2.2986	1.6844	4.6553
C	-1.3492	1.7309	5.5835
C	0.0025	1.7773	5.3025
C	0.3947	1.8354	3.9374
N	0.1649	1.1650	-1.6127
N	1.9838	0.0658	0.2467
F	3.3098	0.2222	4.3758
F	-4.9784	0.7393	-6.2170
F	-5.7231	3.3433	-6.1602
F	-4.7577	4.9635	-4.2158
F	-3.1033	3.9982	-2.3436
F	3.4978	4.0540	-0.7012
F	5.3822	5.5178	-1.9048
F	5.9763	2.1342	-5.1010
F	4.0840	0.6742	-3.8959
F	-6.6469	-4.5564	4.1080
P	0.1717	-1.8996	-1.2119
H	-1.6208	-2.9253	3.8488
H	0.7996	-2.8077	4.1716
H	4.8167	-0.4954	1.6382
H	-5.0059	-0.9576	0.3012
H	2.5651	-1.6457	-2.6887
H	3.1972	-1.6364	-4.8903
H	1.6107	-1.7317	-6.4747
H	-0.6346	-1.7704	-5.9851
H	-1.2946	-1.8795	-3.7055
H	-0.9265	-2.6629	-1.2255
H	1.1423	-2.6939	-0.8043
C	-1.3219	-1.7022	2.1420
C	-1.0141	-2.4686	3.3131
C	0.3148	-2.4028	3.4887
C	0.8465	-1.5993	2.4387
C	2.1958	-1.2974	2.2708
C	2.7187	-0.5295	1.2588
C	4.1174	-0.2044	1.0974
C	-4.2202	-0.5875	-0.0331
C	-2.9030	-0.7679	0.5064
C	-2.5905	-1.5389	1.6092
C	3.1452	-1.8547	3.2959
C	3.6579	-1.0597	4.2997
C	4.5210	-1.5497	5.2616
C	4.8904	-2.8642	5.2211
C	4.4093	-3.6847	4.2487
C	3.5564	-3.1606	3.2914
C	-3.7038	-2.3146	2.2617
Fe	-0.0000	-0.0000	-0.0000
C	-4.0857	-3.5508	1.7876
P	-0.1717	1.8996	1.2119
C	-5.0668	-4.3055	2.4047
H	1.6208	2.9253	-3.8488
C	-5.6938	-3.8295	3.5125
H	-0.7996	2.8077	-4.1716
C	-5.3600	-2.6110	4.0052
H	-4.8167	0.4954	-1.6382
C	-4.3763	-1.8718	3.3740
H	5.0059	0.9576	-0.3012
C	0.5775	-1.8253	-2.9666
C	1.9127	-1.7092	-3.3504
H	-2.5651	1.6457	2.6887
C	2.2986	-1.6844	-4.6553
H	-3.1972	1.6364	4.8903
H	-1.6107	1.7317	6.4747
H	0.6346	1.7704	5.9851
*