! UKS B3LYP ma-def2-SVP OPT NumFreq
%basis
NewGTO Ru "ma-def2-TZVP" end
end 

%scf
  maxiter 200
end

%pal 
	nprocs 16
end
* xyz 0 1
H	-1.0888	-0.1487	-3.1238
H	-0.4462	-5.2324	-0.2390
H	-2.4869	-4.5301	0.9026
H	-4.8026	0.0958	1.9772
H	-4.3780	2.4319	1.4090
H	-0.3879	5.0001	-1.0055
H	-2.1878	1.1169	4.6723
H	-1.0166	0.6094	6.5496
H	1.6059	4.3472	-2.2193
H	1.0976	-0.1827	6.3903
H	3.9355	-0.3219	-3.3324
H	3.4577	-2.6673	-2.8719
H	2.1762	-0.2848	4.3609
H	2.9748	1.9678	3.0458
H	-5.2703	-2.7199	0.1883
H	-7.0119	-3.6884	1.3150
H	-6.7748	-4.1402	3.5734
H	-3.1561	-2.5343	3.4873
H	-3.8837	4.1554	-1.3022
H	-5.0764	6.0335	-0.7791
H	-4.6416	7.2124	1.0958
H	-2.8811	6.6153	2.4586
H	-1.6617	4.6814	1.9636
H	4.6124	2.0173	-1.6867
H	3.7771	3.8986	-5.7980
H	2.1078	2.8187	-4.6883
H	3.3005	-4.1185	-0.2639
H	4.3792	-6.1050	-0.5693
H	3.5958	-7.6335	-2.0838
H	1.6667	-7.2096	-3.2368
H	0.5184	-5.2355	-2.9150
H	-1.1649	1.0209	2.6106
H	2.9786	-1.0336	0.3975
Ru	-0.4143	-0.1033	-0.6410
C	-0.1167	-3.1720	-0.6425
C	-0.7517	-4.3593	-0.1422
H	5.2411	2.1936	2.7662
C	-1.8671	-3.9706	0.4915
C	-1.9330	-2.5451	0.4222
C	-2.9508	-1.7713	0.9723
C	-3.0585	-0.3699	0.8847
C	-4.0890	0.4170	1.4743
C	-3.8494	1.7023	1.1752
C	-2.6124	1.7456	0.4205
C	-1.9672	2.9100	-0.0103
C	-0.7720	2.9449	-0.7162
C	-0.1027	4.1291	-1.1552
H	6.2893	3.0972	-2.8327
C	0.9949	3.7742	-1.8133
H	5.8773	4.0378	-4.8956
C	1.0608	2.3301	-1.7764
C	2.0774	1.5463	-2.3330
C	2.1674	0.1595	-2.2764
C	3.2029	-0.6453	-2.8581
C	2.9456	-1.9368	-2.6068
C	1.7060	-1.9767	-1.8394
C	1.0875	-3.1305	-1.3402
C	0.6210	0.3804	3.2538
C	-4.0522	-2.4656	1.7229
C	-0.6870	0.7864	3.3733
C	-5.1917	-2.8623	1.1037
C	-1.2992	0.8477	4.6080
C	-6.2298	-3.4595	1.7653
C	-6.0955	-3.7150	3.1032
C	-0.6148	0.5256	5.7143
C	0.6489	0.0803	5.6195
C	-4.9826	-3.3481	3.7200
C	1.2953	0.0091	4.4069
C	-3.9407	-2.7478	3.0363
C	-2.6745	4.2083	0.2901
C	3.4285	1.4096	2.4571
C	-3.6809	4.6325	-0.5295
H	6.3729	0.8260	1.2984
C	-4.3907	5.7551	-0.2152
H	5.2563	-0.8232	0.1737
C	-4.1245	6.4667	0.8878
C	-3.0927	6.1016	1.7112
C	-2.3601	4.9484	1.4091
C	3.1700	2.2685	-3.0650
C	4.4349	2.3849	-2.5239
C	3.9520	3.5118	-4.9704
C	2.9532	2.8638	-4.3045
C	1.8087	-4.4354	-1.5550
C	2.9570	-4.7367	-0.8694
C	3.6073	-5.9224	-1.0553
C	3.1370	-6.8358	-1.9469
C	1.9912	-6.5800	-2.6341
C	1.3080	-5.3970	-2.4505
C	1.2573	0.2808	1.9169
C	2.7403	0.4395	1.7451
C	3.4336	-0.3844	0.8830
N	-0.8531	-2.0606	-0.2737
N	-2.1611	0.4587	0.2617
N	-0.0254	1.8585	-1.0960
C	4.7784	1.5439	2.2889
N	1.2535	-0.6908	-1.6702
N	0.5412	0.0679	0.8852
O	-1.4235	-0.2455	-2.3279
C	5.4401	3.0384	-3.2079
C	5.1980	3.6015	-4.4355
H	-4.9002	-3.4966	4.6334
C	5.4565	0.7208	1.4198
C	4.7898	-0.2477	0.7392
*