! UKS B3LYP ma-def2-SVP OPT NumFreq
%basis
NewGTO Pt "ma-def2-TZVP" end
end 

%scf
  maxiter 200
end

%pal 
	nprocs 16
end
* xyz 0 1
Pt	-0.0050	0.0080	-0.0331
C	2.0945	-0.9852	1.9209
C	3.5029	-0.9769	2.0778
C	4.0523	-0.4857	0.9598
C	-1.8335	3.4035	-4.4107
C	3.0072	-0.1383	0.0596
C	-2.3492	3.9061	-5.5941
C	3.2089	0.3074	-1.2284
C	-2.7694	3.0364	-6.5675
C	2.1699	0.6270	-2.0643
C	2.2392	1.0282	-3.4373
C	1.0525	1.3529	-3.8831
C	0.0674	1.1823	-2.8365
C	-1.2071	1.4987	-2.8662
C	-2.0752	1.3695	-1.8013
C	-3.3943	1.8379	-1.6750
C	-3.9084	1.4191	-0.5330
C	-2.9679	0.5991	0.0874
C	-3.1926	-0.2127	1.1992
C	-2.2060	-0.9418	1.8208
C	-2.3630	-1.8518	2.9246
C	-1.1117	-2.1703	3.4045
C	-0.0973	-1.5581	2.6068
C	1.1910	-1.5446	2.8045
C	4.5880	0.4791	-1.7388
C	5.3053	1.5380	-1.5345
C	5.1821	-0.5602	-2.3417
C	-1.7827	2.0478	-4.1514
F	-4.0407	2.6197	-2.6037
C	-2.7140	1.6828	-6.3336
C	-2.1906	1.1709	-5.1364
F	4.8481	2.5628	-0.9197
C	-4.5641	-0.2779	1.7599
C	-5.5661	-0.9904	1.1614
C	-6.8082	-1.1134	1.6866
C	-7.0930	-0.5219	2.9214
C	-6.1294	0.1347	3.5438
F	-1.4764	4.2701	-3.4772
C	-4.8873	0.2268	2.9821
F	-2.4338	5.2204	-5.7933
C	1.6958	-2.1124	4.0698
F	-3.2481	3.5204	-7.7242
C	1.7959	-3.4412	4.2684
C	2.2930	-4.0037	5.4019
C	2.7209	-3.1527	6.3890
C	2.6271	-1.7328	6.2492
C	2.1006	-1.2996	5.0830
N	1.8097	-0.4537	0.6730
N	0.8046	0.6870	-1.7453
N	-1.8074	0.6321	-0.6567
N	-0.8331	-0.8311	1.5942
F	4.1693	-1.3926	3.1659
F	5.3637	-0.3244	0.7243
F	3.4167	1.1037	-4.0837
F	0.7600	1.8379	-5.1111
F	-5.1551	1.6766	-0.0639
F	-3.5605	-2.2809	3.3807
F	-0.8915	-2.9355	4.4441
F	4.4556	-1.7390	-2.6496
F	-3.1295	0.7852	-7.2875
F	-2.1337	-0.1331	-4.9700
F	-5.3429	-1.5632	-0.0402
F	-7.7794	-1.8414	1.0561
F	-8.3120	-0.6729	3.4598
F	-6.3880	0.6963	4.7355
F	-3.9330	0.9051	3.6638
F	1.4142	-4.3274	3.3469
F	2.4023	-5.3253	5.6029
F	3.1673	-3.6459	7.5890
F	2.9749	-0.9180	7.2337
F	2.0652	0.0406	4.9355
C	6.4766	1.5721	-1.9559
C	7.1415	0.5287	-2.5894
C	6.5135	-0.5260	-2.7774
F	7.3478	2.6445	-1.7347
F	8.5160	0.5018	-2.9958
F	7.1107	-1.6150	-3.3972
*