! UKS B3LYP ma-def2-SVP OPT NumFreq
%basis
NewGTO Tm "ma-def2-TZVP" end
end 

%scf
  maxiter 200
end

%pal 
	nprocs 16
end
* xyz 0 1
Tm	0.2295	-0.3401	0.2957
B	1.7136	-2.9142	2.3768
H	-3.3303	2.5697	3.2081
H	-5.1486	-1.0302	-0.1525
H	-4.2093	-2.2891	-2.0687
H	0.2388	-1.9853	-4.8432
H	2.3167	-0.6535	-4.6642
H	4.2868	2.8267	-1.2146
H	-4.6132	-0.7090	3.2244
H	-6.8683	-0.4870	3.8864
H	-8.2243	1.1078	2.9141
H	-7.3946	2.4893	1.2440
H	-5.1797	2.2615	0.5338
H	-1.8317	-4.4023	-2.8449
H	-2.9209	-5.6802	-4.4681
H	-3.8749	-4.6448	-6.3182
H	-3.7725	-2.3329	-6.5437
H	-2.6925	-1.0405	-4.9210
H	4.8898	-0.5775	-2.3157
H	6.7027	-0.4621	-3.7945
H	6.7045	1.1122	-5.5072
H	3.8116	0.5660	4.5012
H	4.9392	2.5989	-5.7132
H	3.4808	-1.9167	4.3893
H	3.1281	2.4893	-4.2327
H	2.1285	-3.6342	2.9991
H	-2.6742	-2.0540	1.8580
H	-2.6230	-4.0022	3.4383
H	-0.1943	-4.5235	3.7803
H	2.0152	-2.5447	-2.0955
C	1.0194	4.5427	2.1592
H	3.3748	-4.5878	-1.5606
C	1.5565	4.6391	3.4312
H	3.2615	-4.8419	0.9441
H	2.4008	1.5167	2.6695
C	1.6497	5.8702	4.0751
C	1.2129	7.0108	3.4516
C	0.7085	6.9407	2.1687
C	0.6080	5.7139	1.5281
C	-0.4585	2.6047	1.8615
C	-1.4196	3.1976	2.7515
C	-2.5326	2.4339	2.7092
C	-2.2831	1.3794	1.7685
C	-3.2890	0.5601	1.2530
C	-3.1488	-0.3146	0.1644
C	-4.2424	-1.0332	-0.4379
C	-3.7303	-1.7108	-1.4853
C	-2.3306	-1.4026	-1.5593
C	-1.5254	-1.7444	-2.6477
C	-0.2423	-1.2362	-2.8941
C	0.4993	-1.4435	-4.1077
C	1.6341	-0.7221	-4.0086
C	1.6171	-0.0737	-2.7178
C	2.6204	0.7894	-2.2529
C	2.5311	1.5941	-1.1126
C	3.4487	2.6617	-0.8003
C	2.8867	3.3817	0.1957
C	1.6462	2.7405	0.5426
C	0.7535	3.2137	1.5090
C	-4.6817	0.7339	1.7903
C	-5.1742	-0.0678	2.8046
C	-6.5174	0.0767	3.2068
C	-7.3215	1.0173	2.6286
C	-6.8336	1.8322	1.6405
C	-5.5160	1.6949	1.2188
C	-2.1546	-2.5958	-3.7163
C	-2.2272	-3.9744	-3.5951
C	-2.8716	-4.7368	-4.5614
C	-3.4381	-4.1234	-5.6541
C	-3.3760	-2.7535	-5.7895
C	-2.7351	-1.9853	-4.8245
C	3.8233	0.9325	-3.1412
C	4.8906	0.0694	-3.0108
C	5.9717	0.1366	-3.8909
C	5.9754	1.0713	-4.8984
C	4.9300	1.9446	-5.0226
C	3.8500	1.8774	-4.1407
H	-1.2944	3.9819	3.2732
C	-1.8858	-2.4760	2.1779
C	-1.8774	-3.5568	3.0532
C	-0.5450	-3.8313	3.2320
C	2.1595	-2.8923	-1.2226
C	2.9161	-4.0285	-0.9439
C	2.8467	-4.1584	0.4317
C	2.4720	0.5923	2.8755
H	3.2451	4.1674	0.5933
C	3.2634	0.0841	3.8934
C	3.0735	-1.2712	3.8226
H	2.0188	5.9213	4.9498
N	-0.9748	1.4396	1.3110
N	-1.9759	-0.5782	-0.5063
N	0.4653	-0.4069	-2.0432
N	1.4638	1.6131	-0.2318
N	-0.6449	-2.1025	1.8406
N	0.1825	-2.9641	2.5100
N	1.6634	-2.3544	-0.1013
N	2.0963	-3.1602	0.9173
N	1.8249	-0.3752	2.2192
N	2.2171	-1.5385	2.8207
H	1.8671	3.8548	3.8705
H	1.2568	7.8461	3.9010
H	0.4289	7.7322	1.7247
H	0.2553	5.6716	0.6469
*