! UKS B3LYP ma-def2-SVP OPT NumFreq
%basis
NewGTO Cd "ma-def2-TZVP" end
end 

%scf
  maxiter 200
end

%pal 
	nprocs 16
end
* xyz 0 1
Cd	-0.3828	1.3022	-0.2251
H	-5.3973	2.0947	5.7180
H	-4.5652	1.3571	7.5602
H	-2.2134	0.2593	7.6583
H	-1.0916	0.0511	5.5758
H	4.1649	1.6944	3.5981
H	6.0584	3.1765	4.5553
C	3.9648	2.6401	1.8649
H	0.4359	-1.2182	0.4058
C	4.4941	2.4469	3.1433
H	4.9865	0.8162	-0.0759
H	4.4177	-0.4692	-2.1159
C	2.4268	-0.7413	-4.0645
H	-0.3384	-0.5687	-4.8830
H	-2.6638	-0.9895	-3.9896
C	3.2985	0.1712	-4.6031
H	-4.4098	-2.1902	1.1249
C	3.9489	-0.0781	-5.8068
C	3.6988	-1.2376	-6.4754
H	-3.8699	-0.8523	3.3014
C	2.8323	-2.1502	-5.9705
H	-3.9041	2.1221	3.4058
C	2.1740	-1.8975	-4.7537
C	-3.9779	-2.1822	-1.6140
C	-3.7804	-3.3200	-2.3620
C	-4.8680	-4.0633	-2.8054
C	-6.1452	-3.6494	-2.5317
C	-6.3507	-2.5047	-1.7926
C	6.1032	4.1451	2.7701
C	-5.2973	-1.7431	-1.3557
C	5.6344	4.3212	1.5063
C	0.2041	-3.0673	-0.8451
C	4.5494	3.5790	1.0250
C	0.9599	-3.8335	0.1686
C	0.4912	-5.0811	0.5142
H	3.6013	0.8116	-4.0619
C	1.1522	-5.8496	1.4044
H	4.5020	0.7327	-6.3097
C	2.3188	-5.4265	1.9449
H	3.9358	-1.4149	-7.3156
C	2.8508	-4.2097	1.6106
H	2.5927	-3.0399	-6.6071
C	0.2146	2.3748	3.9192
C	2.1371	-3.3578	0.6992
H	1.3892	-2.7563	-4.6227
C	-1.2680	3.3057	-1.7005
H	-2.8376	-3.6196	-2.5080
H	-4.5704	-4.8501	-3.3434
H	-6.9116	-4.2669	-2.9538
H	-7.1433	-2.0576	-1.9004
H	-5.5316	-0.7105	-0.8161
H	-0.4569	-5.6449	0.1875
H	6.8405	4.6482	3.3125
H	0.9468	-6.8296	1.6718
H	5.9978	4.8929	0.9600
H	4.1570	3.6602	0.0984
H	2.8850	-6.0577	2.6438
N	-1.9493	-0.0689	0.7967
H	3.7067	-3.6002	1.9009
N	0.4151	1.3399	1.8803
H	2.4110	-2.4292	0.8501
N	1.8390	0.6984	-0.5958
N	-0.4398	-0.9060	-1.6188
N	0.1227	-1.7248	-0.6167
C	-2.3082	0.1220	2.1068
O	-0.3184	-3.5911	-1.8157
O	-1.1548	2.1759	-2.1990
C	-1.7552	4.4412	-2.5631
C	-1.7078	0.9420	3.0536
C	-0.4385	1.5549	2.9476
C	-2.4399	1.1204	4.3648
C	1.4550	2.6276	3.4668
C	-3.6671	1.7642	4.3980
C	1.5867	1.9655	2.1819
C	-4.3360	1.9060	5.6053
C	2.7533	1.8900	1.3983
C	-3.7935	1.4143	6.7605
C	2.8534	1.1695	0.1789
C	-2.5953	0.7636	6.7411
C	4.1149	0.7842	-0.4240
C	-1.9185	0.6149	5.5464
C	3.8410	0.1026	-1.5445
C	2.4084	0.0809	-1.6806
H	-2.6137	4.2651	-2.5302
C	1.7105	-0.4566	-2.7841
H	-1.4840	4.6528	-3.3687
H	-0.2752	2.8426	4.6392
C	5.5554	3.1948	3.5896
C	0.3279	-0.6979	-2.7949
H	-1.4708	5.4007	-2.2153
H	2.1345	3.1913	3.7112
C	-0.5570	-0.7185	-3.8623
C	-1.8342	-0.9895	-3.3870
C	-1.7710	-1.1439	-1.9981
O	-0.9599	3.5264	-0.5221
C	-2.8112	-1.4149	-1.0913
C	-2.7902	-1.0055	0.2503
C	-3.6961	-1.4789	1.2898
C	-3.4011	-0.7939	2.4162
*