! UKS B3LYP ma-def2-SVP OPT NumFreq
%basis

end 

%scf
  maxiter 200
end

%pal 
	nprocs 16
end
* xyz 0 1
H	4.6690	0.9782	-3.1360
H	4.1654	0.8279	-4.6468
H	-3.2345	-0.8826	-4.7511
H	-3.0261	-2.9606	-5.8055
H	1.6623	-2.1889	-1.6440
H	2.7695	-4.0831	-0.5084
H	1.9414	-3.9528	3.1295
H	2.2913	-5.0920	2.0629
H	3.3854	-3.9862	2.4396
H	0.7974	-1.9199	2.1997
C	1.4133	1.3540	2.2853
C	-1.0493	1.6113	-0.1767
C	-1.6821	-0.8643	-2.4359
C	2.5752	1.4910	0.4450
C	-2.7215	-1.2902	-0.5613
C	2.2074	0.8563	-1.8980
C	0.5154	0.0712	-3.0271
C	-2.2056	-0.9378	1.8188
C	-0.6814	0.1965	2.9097
C	2.6554	2.0105	2.6317
C	-2.9497	-1.4489	-2.7956
C	-3.5995	-1.7212	-1.6288
C	2.6347	0.7995	-3.2876
C	1.5774	0.3050	-3.9916
C	-2.5234	-1.0614	3.2277
H	4.0484	2.2677	4.1108
C	-1.5935	-0.3331	3.9006
H	1.8830	4.1319	4.2002
H	2.3866	-0.0858	-5.8228
C	0.4466	0.9598	3.1989
H	3.1713	4.1770	5.1474
H	0.9766	-0.8041	-5.5951
C	2.9798	1.3390	-0.8622
H	3.3184	4.4727	3.5813
H	1.2699	1.9938	-6.1074
H	5.1925	2.7722	2.1340
H	0.7710	0.9264	-7.1887
C	-2.9987	-1.4088	0.7851
H	-0.1363	1.2555	-5.9128
H	4.3568	4.6715	1.0894
H	5.6518	4.2221	0.2627
H	4.1890	3.8914	-0.2982
C	-0.7135	-0.4717	-3.3417
C	-3.4166	-1.6911	-4.2093
H	3.9117	3.2082	-3.0842
C	-4.9511	-2.3476	-1.4484
H	4.9237	3.0178	-4.3100
C	-4.9058	-3.8559	-1.3695
H	3.3458	3.0629	-4.5743
C	-3.6665	-1.8531	3.7957
C	-4.9162	-1.0396	4.0522
C	-1.5086	-0.0742	5.3737
C	3.9720	1.2622	-3.7794
C	-2.1207	1.2605	5.7726
C	1.4755	0.0394	-5.4576
C	1.6245	-2.3710	-0.7123
C	2.2376	-3.4116	-0.0990
C	2.4290	-4.1533	2.3036
C	1.1530	-2.2173	1.3711
N	1.3708	1.0644	0.9472
N	0.9228	0.4042	-1.7633
N	0.9389	-1.6173	0.2163
N	-1.5586	-0.7645	-1.0734
N	1.9358	-3.2992	1.2306
N	-1.0502	-0.2115	1.6570
C	3.3873	2.0823	1.4810
C	-2.7384	-2.8955	-4.8704
C	0.7833	1.1536	-6.2366
C	3.0836	2.4598	3.9979
C	2.8431	3.9432	4.2549
C	4.7511	2.6436	1.2583
C	4.7360	3.9766	0.5115
C	4.0446	2.7722	-3.9534
Fe	-0.1187	0.1901	-0.0621
H	0.5645	1.2354	4.1009
H	3.8730	1.5896	-1.0707
H	-3.8042	-1.8531	1.0237
H	-0.9116	-0.5886	-4.2632
H	-4.3955	-1.8364	-4.2036
S	-2.0503	2.8116	-0.1690
H	-2.9893	-3.7140	-4.3937
H	-1.7651	-2.7819	-4.8347
H	-5.3604	-1.9968	-0.6192
H	-5.5311	-2.0836	-2.2053
H	-4.5115	-4.1265	-0.5143
H	-5.8150	-4.2151	-1.4378
H	-4.3606	-4.2051	-2.1065
H	-3.8881	-2.5864	3.1683
H	-3.3751	-2.2657	4.6472
H	-0.5579	-0.0892	5.6502
H	-5.2208	-0.6354	3.2128
H	-5.6188	-1.6226	4.4086
H	-4.7181	-0.3331	4.7029
H	-1.9764	-0.8008	5.8564
H	2.5922	1.9337	4.6756
H	-3.0780	1.2555	5.5644
H	-1.9962	1.4025	6.7348
H	-1.6812	1.9821	5.2766
H	5.2868	1.9921	0.7420
*