! UKS B3LYP ma-def2-SVP OPT NumFreq
%basis

end 

%scf
  maxiter 200
end

%pal 
	nprocs 16
end
* xyz 0 1
C	-1.5595	-1.5869	2.1246
C	-1.7035	-2.9164	2.6970
C	-0.8615	-3.7506	1.9877
C	-0.2018	-2.9271	0.9834
C	3.2066	0.6446	-3.7041
C	4.5164	1.0840	-3.5124
C	5.3544	1.2667	-4.6028
C	4.8945	1.0158	-5.8840
C	3.5933	0.5788	-6.0833
C	2.7556	0.3892	-4.9959
C	2.5158	3.3705	-3.7832
C	3.1330	3.8754	-4.6721
C	0.3512	-7.0135	-0.9278
C	3.8463	4.4621	-5.7741
C	0.1893	-5.6342	-0.8654
C	4.9303	5.3024	-5.5661
C	-1.4158	2.5950	0.8760
C	5.5651	5.8951	-6.6592
N	1.2599	-1.2326	-1.0423
C	-2.4510	3.0780	1.7718
C	5.1233	5.6393	-7.9384
C	-2.9170	1.9775	2.4654
C	4.0745	4.7879	-8.1560
C	-2.1413	0.8346	2.0261
C	3.4292	4.1940	-7.0794
C	0.7861	5.1408	-2.3028
C	0.9415	6.2507	-2.7431
C	1.2599	7.5350	-3.2832
C	2.0465	7.6095	-4.4447
C	-3.2066	-0.6446	3.7041
C	2.4219	8.8427	-4.9672
C	-4.5164	-1.0840	3.5124
C	2.0192	10.0104	-4.3479
C	-5.3544	-1.2667	4.6028
C	-3.0661	4.3481	1.9027
C	1.2346	9.9517	-3.2004
C	-4.8945	-1.0158	5.8840
C	-3.7717	5.2850	2.1221
C	0.8502	8.7207	-2.6730
C	-3.5933	-0.5788	6.0833
C	-4.6942	6.3813	2.3400
C	-2.7556	-0.3892	4.9959
C	-4.3080	7.7069	2.1462
C	-2.5158	-3.3705	3.7832
C	-5.2219	8.7172	2.3421
C	-3.1330	-3.8754	4.6721
H	-0.2023	-7.5633	-1.5457
C	-6.5159	8.4431	2.7273
C	-3.8463	-4.4621	5.7741
C	-6.9060	7.1239	2.9336
H	-0.4679	-5.2251	-1.4687
C	-4.9303	-5.3024	5.5661
C	-5.9941	6.0988	2.7438
C	-5.5651	-5.8951	6.6592
C	-4.0669	2.0301	3.3114
C	-5.1233	-5.6393	7.9384
C	-5.0921	2.1925	3.9198
C	-4.0745	-4.7879	8.1560
C	-6.3216	2.2964	4.6385
N	0.6425	1.6244	-1.1025
C	-3.4292	-4.1940	7.0794
C	-6.4772	3.1865	5.6854
C	-0.7861	-5.1408	2.3028
C	-7.6992	3.2500	6.3634
C	-0.9415	-6.2507	2.7431
C	-8.7316	2.4501	6.0229
C	-1.2599	-7.5350	3.2832
Zn	0.0000	0.0000	0.0000
C	-8.5942	1.5877	4.9993
C	-2.0465	-7.6095	4.4447
C	-7.4023	1.4943	4.3004
C	-2.4219	-8.8427	4.9672
C	-2.0192	-10.0104	4.3479
C	-1.2346	-9.9517	3.2004
C	-0.8502	-8.7207	2.6730
H	-2.4210	4.9689	-1.3711
H	2.4210	-4.9689	1.3711
H	-2.7500	7.2667	-1.2974
H	2.7500	-7.2667	1.2974
H	-1.4173	8.6123	0.1908
H	1.4173	-8.6123	-0.1908
N	-0.6425	-1.6244	1.1025
H	3.3508	-7.8941	-1.8610
H	4.9643	-9.6049	-2.2028
H	7.1468	-9.1711	-2.8403
C	-0.7287	3.3882	-0.0475
C	0.7287	-3.3882	0.0475
H	7.8577	-6.9116	-3.1617
H	6.1898	-5.1787	-2.8923
H	5.7702	-3.7403	-6.0164
H	7.6569	-3.8997	-7.0367
H	9.5059	-2.5278	-6.5781
H	9.3444	-0.9522	-4.6401
H	7.3566	-0.8756	-3.5004
C	-0.3512	7.0135	0.9278
H	0.2023	7.5633	1.5457
C	-0.1893	5.6342	0.8654
H	0.4679	5.2251	1.4687
N	-1.2599	1.2326	1.0423
H	4.8541	1.2730	-2.6280
H	6.2593	1.5534	-4.4536
H	5.4940	1.1237	-6.6206
C	1.4158	-2.5950	-0.8760
H	3.2904	0.3914	-6.9688
C	2.4510	-3.0780	-1.7718
H	1.8263	0.0686	-5.1296
C	2.9170	-1.9775	-2.4654
H	5.2722	5.4611	-4.6795
C	2.1413	-0.8346	-2.0261
H	6.3393	6.4719	-6.4976
H	5.5574	6.0361	-8.6673
H	3.7492	4.6057	-9.1393
H	2.7032	3.5345	-7.2352
H	2.3259	6.7644	-4.9031
H	2.9553	8.9028	-5.8277
H	2.3018	10.8980	-4.6309
C	3.0661	-4.3481	-1.9027
H	0.9433	10.7790	-2.7871
C	3.7717	-5.2850	-2.1221
C	0.9604	-4.8763	-0.0039
C	-0.9604	4.8763	0.0039
H	0.3788	8.6547	-1.8554
C	4.6942	-6.3813	-2.3400
C	1.9010	-5.5011	0.8030
C	-1.9010	5.5011	-0.8030
C	4.3080	-7.7069	-2.1462
C	2.0772	-6.8794	0.7240
C	-2.0772	6.8794	-0.7240
C	5.2219	-8.7172	-2.3421
C	1.3012	-7.6280	-0.1370
C	-1.3012	7.6280	0.1370
H	-4.8541	-1.2730	2.6280
C	6.5159	-8.4431	-2.7273
H	-6.2593	-1.5534	4.4536
C	6.9060	-7.1239	-2.9336
H	-5.4940	-1.1237	6.6206
C	5.9941	-6.0988	-2.7438
H	-3.2904	-0.3914	6.9688
C	4.0669	-2.0301	-3.3114
H	-1.8263	-0.0686	5.1296
C	5.0921	-2.1925	-3.9198
H	-5.2722	-5.4611	4.6795
C	6.3216	-2.2964	-4.6385
H	-6.3393	-6.4719	6.4976
C	6.4772	-3.1865	-5.6854
H	-5.5574	-6.0361	8.6673
C	7.6992	-3.2500	-6.3634
C	2.2705	0.4588	-2.5483
H	-3.7492	-4.6057	9.1393
C	8.7316	-2.4501	-6.0229
H	-3.3508	7.8941	1.8610
C	1.5595	1.5869	-2.1246
H	-2.7032	-3.5345	7.2352
C	8.5942	-1.5877	-4.9993
H	-4.9643	9.6049	2.2028
C	1.7035	2.9164	-2.6970
H	-2.3259	-6.7644	4.9031
C	7.4023	-1.4943	-4.3004
H	-7.1468	9.1711	2.8403
C	0.8615	3.7506	-1.9877
H	-2.9553	-8.9028	5.8277
H	-7.8577	6.9116	3.1617
C	0.2018	2.9271	-0.9834
H	-2.3018	-10.8980	4.6309
H	-6.1898	5.1787	2.8923
H	-0.9433	-10.7790	2.7871
H	-5.7702	3.7403	6.0164
H	-0.3788	-8.6547	1.8554
H	-7.6569	3.8997	7.0367
H	-9.5059	2.5278	6.5781
H	-9.3444	0.9522	4.6401
H	-7.3566	0.8756	3.5004
C	-2.2705	-0.4588	2.5483
*