! UKS B3LYP ma-def2-SVP OPT NumFreq
%basis

end 

%scf
  maxiter 200
end

%pal 
	nprocs 16
end
* xyz 0 1
H	2.3200	-1.0967	-3.7866
H	0.2315	-0.8463	-5.0273
H	-4.1467	-2.2596	-6.7773
H	-3.4274	-2.0092	-4.5983
H	8.3083	-0.3517	0.8596
H	6.4805	-4.6290	1.2782
H	5.6326	-4.6273	2.5970
H	4.9166	-4.7486	1.2072
H	-4.4370	-1.5460	-8.9604
C	0.8881	0.2817	2.1512
H	-4.2622	-0.0132	-9.2353
H	-3.0777	-1.0016	-9.5222
N	-2.7313	0.5548	-1.2335
C	0.5021	0.1971	6.7503
H	3.1449	-3.0971	-1.5276
H	5.1904	-3.8910	-2.0631
C	1.9043	-0.4241	0.3191
H	8.0147	-1.8382	-2.9033
C	2.1715	-0.7050	-1.0454
H	7.8233	-3.0962	-1.9872
H	7.3449	-3.1337	-3.4806
H	6.4739	-0.1353	-2.2576
C	2.2111	-0.0550	2.4926
H	-2.2859	1.4725	4.5629
H	-4.3909	1.6819	3.3716
H	2.1254	2.9207	6.3366
H	1.3896	2.6258	4.1764
C	2.8644	-0.5087	1.3926
C	1.2015	-0.5968	-2.0514
H	-5.0738	3.6884	1.4395
H	-7.1854	4.3846	2.0209
C	0.0468	-0.0001	5.4459
H	-8.6932	0.8793	0.9927
C	-0.6659	-0.3203	-3.1674
H	2.1649	0.6141	8.8316
H	2.4520	2.1294	8.5494
H	1.0531	1.6845	9.0984
C	-2.4080	-0.2923	-4.9042
H	-4.6449	0.6071	-3.7814
H	-2.2760	1.0669	-7.8546
C	1.4919	-0.8646	-3.4333
H	-1.5336	1.3242	-5.6869
H	-9.6995	3.1100	2.8690
C	-1.9724	-0.1030	-3.4878
H	-5.7601	1.4507	-1.7496
C	4.1775	-1.0854	1.4406
H	-9.6335	4.1290	1.6790
H	-10.2109	2.6895	1.4482
C	6.6521	-2.1287	1.4148
H	7.2822	0.7676	0.4759
C	3.5441	-1.1578	-1.4608
H	7.7540	0.6123	1.9619
C	-3.3153	-0.6177	-7.5344
C	7.5396	0.1395	1.1518
C	5.6524	-4.3534	1.6713
C	0.3503	-0.7172	-4.1140
C	-3.6254	-1.5224	-6.5558
N	0.6934	0.0505	0.7856
C	-3.1932	-1.3802	-5.2417
C	-3.9322	1.0381	-0.7413
N	4.2798	-2.3878	1.5635
C	-3.2757	1.2091	1.6104
N	5.2201	-0.1999	1.3788
C	-1.3983	0.9657	2.7277
N	6.4277	-0.7940	1.4080
N	5.5435	-2.8616	1.6051
C	-3.8201	-0.8123	-8.9416
C	0.3767	0.9194	4.4668
O	7.8200	-2.5562	1.2950
C	-5.5852	1.8058	0.9303
C	-4.2127	1.3399	0.5731
H	4.3821	0.6176	-1.5925
C	6.0549	-2.0589	-2.2705
C	3.8344	-2.4864	-1.6497
C	5.0387	-2.9750	-2.0014
C	-0.0687	0.7074	3.0399
C	4.5306	-0.2950	-1.6955
C	7.4406	-2.5824	-2.7014
C	5.7975	-0.7503	-2.1022
C	1.2741	1.2693	7.0957
C	-2.4080	1.3390	3.6512
N	-0.1050	-0.2487	-1.8916
C	-2.9424	0.3532	-2.5652
C	-3.5627	1.4673	3.0030
C	1.6041	2.1809	6.1243
C	1.1586	2.0012	4.8243
Cu	-1.0173	0.3133	-0.2187
H	0.2744	-0.4215	7.4042
C	-6.6905	0.9753	0.7809
H	2.5807	0.0217	3.3418
C	-5.7898	3.1013	1.3680
C	-7.0633	3.5200	1.6999
C	-8.1521	2.6991	1.5701
C	-4.2688	0.6847	-2.9340
C	-7.9608	1.4420	1.1020
C	1.7822	1.4402	8.5273
C	-2.5201	0.4466	-7.2048
C	-2.0747	0.5975	-5.8972
H	-0.4745	-0.7416	5.2382
C	-4.8858	1.1367	-1.8134
C	-9.5543	3.2016	1.9249
H	-6.5783	0.1081	0.4647
N	-1.9559	0.8758	1.4549
*