! UKS B3LYP ma-def2-SVP OPT NumFreq
%basis
NewGTO Ho "ma-def2-TZVP" end
end 

%scf
  maxiter 200
end

%pal 
	nprocs 16
end
* xyz 0 1
C	4.3526	0.1651	-0.2834
C	0.3939	0.8091	4.0077
C	4.0870	1.4206	0.0635
C	2.6588	1.5778	0.0594
C	1.9771	2.7934	0.2770
C	0.5671	2.9731	0.2310
C	-0.0814	4.2585	0.3432
C	-1.3786	4.0314	0.2746
C	-1.5883	2.5987	0.0705
C	-2.8296	1.9822	-0.1047
C	-2.6849	-3.6263	-2.2957
C	-3.0245	-4.7745	-1.6672
C	-3.7495	-5.7604	-2.3369
C	-4.1427	-5.5433	-3.6322
C	-3.8099	-4.4026	-4.2738
C	-3.0747	-3.4266	-3.6107
C	4.1451	-2.6154	-1.2979
C	5.1665	-2.1637	-2.1370
C	5.4206	-4.6247	-0.8606
C	4.3059	-3.8610	-0.6896
C	2.7921	4.0264	0.5418
C	3.1102	4.9100	-0.4695
C	3.8362	6.0257	-0.2065
C	4.2409	6.3302	1.0663
H	-6.6413	3.1553	1.9988
C	3.9491	5.4716	2.0652
H	-7.1178	4.8626	0.5313
C	3.2367	4.3060	1.7986
C	-4.0652	2.8084	0.0634
H	-5.7522	5.2569	-1.2450
C	-4.9133	2.5762	1.1071
C	-5.5391	4.5606	-0.6331
C	-4.3924	3.8018	-0.8298
C	-0.7619	1.3806	3.3075
C	-2.6165	-0.1644	3.0138
C	2.3829	-0.1719	3.0807
N	-2.0055	-0.3042	-0.5877
N	0.4520	-1.8567	-1.0605
N	2.0581	0.3798	-0.2548
N	-0.3596	1.9847	0.0549
Cl	-0.3333	-2.4143	2.1146
O	-1.5462	0.5395	2.3961
O	1.2066	0.4596	2.6343
H	7.0221	-2.6304	-2.8938
H	7.2239	-4.6771	-1.8150
H	4.2306	5.6638	2.9524
H	0.8658	1.4680	4.5752
H	0.1648	0.0029	4.5352
Ho	-0.0189	-0.2926	0.6391
H	-5.1105	0.4546	-0.8537
C	-6.0554	3.3325	1.2724
C	-6.3427	4.3284	0.4029
H	-4.6146	-1.8442	-1.6309
H	2.1515	-1.0130	3.5284
H	-0.1977	-4.5374	-2.6873
H	2.8503	0.4147	3.7108
H	2.2245	-4.1954	-2.3858
H	5.2143	-0.2293	-0.3583
H	4.7253	2.0920	0.2748
H	0.3437	5.1022	0.4451
H	-2.0625	4.6878	0.3459
H	-2.7669	-4.9118	-0.7629
H	-3.9683	-6.5766	-1.9008
H	-4.6557	-6.2022	-4.0843
H	-4.0766	-4.2678	-5.1748
H	-2.8399	-2.6229	-4.0582
H	5.0787	-1.3275	-2.5807
C	6.3257	-2.9424	-2.3283
H	5.5039	-5.4634	-0.4237
H	3.6083	-4.1904	-0.1337
C	6.4408	-4.1530	-1.6893
H	2.8184	4.7353	-1.3558
H	4.0688	6.6098	-0.9207
H	4.7196	7.1339	1.2422
H	3.0566	3.6969	2.5037
H	-4.7149	1.8848	1.7258
H	-3.8361	3.9665	-1.5808
H	-0.4394	2.1594	2.7885
H	-1.3820	1.7301	3.9953
H	-3.2445	0.4771	3.4087
H	-3.0804	-0.7060	2.3428
H	-2.2608	-0.7459	3.7169
H	2.9643	-0.3591	2.3150
C	-3.0268	0.6144	-0.4464
C	-4.2579	0.0378	-0.8673
C	-3.9866	-1.2177	-1.2898
C	-2.5800	-1.4274	-1.1308
C	-1.8870	-2.5481	-1.5988
C	-0.4975	-2.7328	-1.5878
C	0.2069	-3.8110	-2.2283
C	1.5303	-3.6263	-2.0716
C	1.6876	-2.3958	-1.3333
C	2.9084	-1.8217	-1.0304
C	3.0839	-0.4938	-0.5265
*