! UKS B3LYP ma-def2-SVP OPT NumFreq
%basis

end 

%scf
  maxiter 200
end

%pal 
	nprocs 16
end
* xyz 0 1
Ni	0.4543	-0.0043	0.2286
C	3.5201	-3.7233	0.3473
H	-4.0291	-1.5398	3.6272
C	-1.9069	4.3041	1.5243
C	3.8070	-4.4656	-0.7923
H	1.4275	-4.7984	1.5610
C	-1.0647	5.2608	2.0470
C	4.7094	-5.5270	-0.7278
C	-1.5730	6.4387	2.5792
C	5.3151	-5.8521	0.4483
C	5.0344	-5.1386	1.5818
C	-2.9196	6.6789	2.5614
H	4.7600	-1.9855	-1.3103
C	4.1521	-4.0687	1.5180
C	-3.7661	5.7336	2.0393
C	1.3661	-2.6788	1.0201
H	-0.7323	-4.2110	2.9252
C	-3.2690	4.5545	1.5090
C	0.9297	-3.8832	1.6762
H	-4.5215	-1.5917	-3.9652
C	-0.2019	-3.5841	2.3427
C	-0.2605	4.0129	-0.8325
H	-2.1871	2.9033	3.8538
C	-0.4814	-2.1865	2.1457
C	-1.4145	-1.4985	2.9588
C	-2.0774	-2.1906	4.1058
C	4.4756	4.1948	-3.7495
H	4.6011	0.2431	-2.4770
C	-3.4510	-2.0061	4.2888
H	-0.6204	-0.3601	-4.3109
C	-1.7003	-0.1305	2.8973
H	2.4391	1.1551	-4.5199
C	-2.0859	0.7882	3.9138
H	-0.4861	-0.1790	-1.9217
C	-2.0833	2.0363	3.3896
H	4.0595	-3.5558	2.3507
N	-1.3657	0.0968	0.4994
H	-4.5147	-0.9476	-1.6310
N	-1.5047	0.6210	1.7796
H	4.9010	-6.1010	-1.5244
N	0.3635	1.8381	-0.3614
N	2.1548	-0.2886	-0.5057
H	3.3008	-4.2818	-1.6870
N	0.4541	-1.6651	1.2304
H	3.8737	2.1426	-6.2146
H	5.4986	-5.3213	2.5234
N	-2.6298	-1.3886	-5.7078
O	-3.6291	-0.0352	0.4151
H	5.9843	-6.6081	0.5339
O	-1.5936	-1.3887	-6.3509
O	-3.7245	-1.5806	-6.1982
H	-3.7829	-3.5873	7.1774
H	4.9503	4.1113	-5.7810
C	-2.5313	-0.1508	-0.1202
H	-0.8465	4.8154	-0.8086
H	-1.5403	-3.9259	6.8960
C	-2.4467	-0.5645	-1.5637
H	1.0895	4.3350	-2.3728
C	-3.6208	-0.9899	-2.1710
C	-3.6806	-1.2756	-3.5111
C	-2.5613	-1.1347	-4.2564
C	-1.3800	-0.7208	-3.7124
C	-1.3301	-0.4348	-2.3638
C	-1.6911	1.9506	2.0220
H	-2.2028	0.5487	4.8736
C	-1.3769	2.9628	1.1198
C	-1.3706	-2.9045	5.0655
H	-0.4279	-3.0502	4.9224
C	-2.0183	-3.4610	6.1563
H	-5.1011	-2.4170	5.5462
C	-3.3697	-3.2806	6.3219
C	-4.0861	-2.5602	5.3916
C	-0.5078	2.8709	0.0172
H	3.7372	4.0042	-1.8638
C	0.7368	3.6957	-1.6877
H	4.7555	5.1178	-3.5904
C	1.1591	2.3672	-1.3546
H	-3.8500	3.7885	1.0781
C	2.2983	1.7384	-1.8754
H	-0.0631	5.1477	2.1357
C	3.0595	2.4403	-2.9674
H	-3.2189	7.5669	3.0294
C	3.7824	3.5617	-2.7270
H	-0.8979	7.1826	2.8860
H	-4.7095	5.9289	1.9084
C	4.4664	3.6969	-4.9966
C	3.7182	2.5962	-5.2623
C	3.0163	1.9605	-4.2401
C	2.7782	0.5192	-1.4319
C	3.9899	-0.1183	-1.8679
C	4.0910	-1.2816	-1.2320
C	2.9268	-1.4290	-0.4004
C	2.5635	-2.5629	0.3144
*