! UKS B3LYP ma-def2-SVP OPT NumFreq
%basis
NewGTO I "ma-def2-TZVP" end
NewGTO Rh "ma-def2-TZVP" end
end 

%scf
  maxiter 200
end

%pal 
	nprocs 16
end
* xyz 0 1
H	-5.5259	-0.6624	-3.9481
C	-0.9109	-3.0492	-0.5950
N	0.9068	1.3999	0.9279
H	2.7552	2.3430	8.5219
H	-6.0222	-0.8501	-6.7632
H	3.7506	1.7266	9.6156
H	-5.9844	-1.9601	-4.7692
H	-4.9190	0.2158	-6.2976
H	4.0213	1.4810	8.0557
C	-0.7814	-0.7598	-3.2413
H	-6.5840	1.6270	-5.9334
C	-0.9924	-1.7840	-2.3972
H	-7.6770	0.4707	-6.1097
H	-3.0561	-5.1161	-2.4185
C	-0.2633	0.5448	-2.9561
H	-6.9988	0.7186	-4.6817
H	2.3928	3.8886	4.1008
C	-0.0202	1.5111	-4.0011
H	-1.7972	-5.8623	-1.7706
H	-2.9266	-5.2320	-0.8260
C	0.4382	2.6535	-3.2802
H	0.0380	3.7658	4.6633
C	0.4775	2.3013	-1.8846
C	0.8937	3.1030	-0.8131
C	1.0495	2.7346	0.5136
C	1.4410	3.5132	1.6641
C	1.5472	2.7114	2.7165
C	1.2547	1.3257	2.2563
C	0.7744	-4.6203	3.6886
H	-1.7449	-2.9773	-4.7639
H	-2.1393	-4.4048	-4.1611
C	1.8397	-2.1524	4.8812
C	0.8181	-1.9416	6.0138
H	-2.2440	1.1496	-5.5076
H	3.2907	4.1713	-1.2284
C	-3.9206	-1.6704	-4.8170
H	-1.7463	2.6651	-5.6212
H	3.8423	6.4421	-1.7078
C	-5.3775	-1.1792	-4.7814
C	-0.1687	1.3118	-5.4946
H	2.1919	8.0410	-1.9849
C	-5.7311	-0.2871	-6.0089
H	-2.4507	2.3569	-7.7273
H	-0.0130	7.5475	-1.5921
C	-6.8518	0.7325	-5.6427
H	-0.6330	5.3067	-1.0978
H	-1.5658	-0.3821	-7.6372
C	1.4875	-1.5754	7.3530
H	-3.0954	0.0860	-7.6069
C	1.9096	-0.1017	7.4177
C	2.4772	0.2922	8.7965
H	-2.3838	-0.7181	-9.7957
C	1.9052	3.0266	4.0887
C	3.3213	1.5899	8.7600
H	-3.0649	1.9838	-10.3107
C	-0.8221	-4.9609	0.9988
H	-3.7431	0.6700	-10.9194
H	-4.1273	1.1566	-9.4465
C	0.0089	-5.9990	0.4556
C	-0.2924	-7.3129	0.8158
C	-1.3825	-7.6211	1.5657
H	1.8164	2.9941	6.7959
H	-1.5644	-8.5271	1.7910
H	-2.9717	-6.8749	2.4915
H	-2.5293	-4.6249	1.9972
H	-0.4670	2.6396	7.4676
H	1.0204	3.3556	9.2020
H	-0.6111	3.5340	10.6894
C	1.0975	3.5827	6.4582
H	-3.8522	1.4694	2.3698
C	-0.0886	3.5595	7.4440
H	-4.3267	1.8401	0.8868
H	-4.6265	0.3873	1.4819
C	0.6871	3.8445	-4.2325
C	-1.6590	-3.7907	-1.6277
N	-1.6983	0.3455	0.5308
C	1.6549	5.0286	1.8742
C	-1.6634	-3.0353	-2.7232
C	-2.4303	-5.1208	-1.6654
H	1.4584	4.5050	6.4091
H	-0.7960	4.1666	7.1153
C	1.2197	4.5281	-1.1935
C	-2.2484	-3.4292	-4.0412
C	2.6184	4.8340	-1.3260
C	-3.7416	-3.0700	-4.1707
C	2.9313	6.1896	-1.6081
H	0.7089	4.8850	8.8443
C	1.9460	7.1559	-1.7452
C	-1.5775	1.7428	-5.9348
C	0.6478	6.8662	-1.5415
C	-1.7725	1.6895	-7.4643
H	0.2898	-2.7711	6.1309
C	0.2810	5.5176	-1.2531
H	-1.1714	4.8757	10.0220
H	0.1922	-1.2186	5.7551
C	-2.1946	0.2992	-7.9751
C	-2.2528	0.2227	-9.5206
C	0.3232	3.9766	8.8722
C	-3.4025	1.0801	-10.1018
C	-0.8847	3.9535	9.8467
C	-2.1989	-6.6501	1.9897
C	-1.9311	-5.3015	1.6990
H	-1.6182	3.4506	9.4485
H	1.5879	0.3919	3.9184
C	0.1384	-2.8105	1.6090
H	-1.0041	-0.9220	-4.1522
C	-2.7170	0.6491	0.9370
H	0.1530	-4.5994	4.4459
C	-3.9832	1.1264	1.4620
H	0.5532	-5.3757	3.1025
H	1.6913	-4.7222	4.0204
H	3.0331	-0.4469	9.1394
N	0.0642	0.9758	-1.7429
H	1.2372	3.5526	-4.9849
H	1.7277	0.4313	9.4304
H	2.3316	-2.9982	5.0346
H	2.4961	-1.4109	4.8874
H	0.5095	1.8517	-5.9750
H	-0.0246	0.3594	-5.7223
H	2.5194	2.3268	4.4248
H	-0.9153	1.9421	-7.9035
H	0.2534	2.2387	5.0945
H	-1.3912	0.5332	-9.8911
H	0.7322	-5.7974	-0.1269
C	0.6929	3.1239	5.0361
H	0.2810	-8.0127	0.5275
Rh	0.1984	-0.2138	-0.0983
H	-0.1789	4.1736	-4.5703
H	1.1382	4.5629	-3.7459
I	2.6054	-0.8237	-0.8754
C	1.3012	0.2459	3.0254
H	0.8486	-1.7631	8.0915
H	-4.1972	-3.7513	-4.7259
C	0.9796	-1.1027	2.6930
H	1.4861	5.2557	2.8101
H	2.2807	-2.1455	7.4884
H	-4.1622	-3.0770	-3.2744
H	-3.6150	-1.7098	-5.7552
C	1.1673	-2.2034	3.5631
H	2.5776	5.2627	1.6383
C	0.6594	-3.3133	2.8999
N	0.4047	-1.4271	1.4880
H	-3.3487	-1.0193	-4.3377
H	1.0364	5.5268	1.3000
N	-0.6024	-1.7979	-1.0875
H	1.1193	0.4776	7.2197
H	2.5878	0.0791	6.7229
C	-0.5180	-3.5358	0.6382
*