! UKS B3LYP ma-def2-SVP OPT NumFreq
%basis
NewGTO Hg "ma-def2-TZVP" end
end 

%scf
  maxiter 200
end

%pal 
	nprocs 16
end
* xyz 0 1
C	1.4682	-2.2499	-8.7662
N	1.6980	-2.5972	-9.8098
H	1.4866	-3.2797	3.6448
H	3.0512	-3.9371	-1.4967
H	2.2828	-2.9649	-3.5992
H	2.5616	-0.2647	-4.9330
H	2.9376	-0.8307	-7.1387
H	0.7285	0.7531	5.5547
H	3.9483	-2.7330	2.6428
H	5.3277	-4.4009	3.3761
H	3.5569	-6.9605	0.8642
H	2.1144	-5.3178	0.1894
H	-2.5374	2.5148	-3.7156
H	-2.7353	4.1527	1.4684
H	-2.0412	3.1481	3.5883
C	1.1364	-2.4926	3.2929
Hg	0.4294	0.3257	0.0111
C	1.3117	-2.0168	1.9399
C	1.9874	-2.7174	0.8821
H	-1.1926	0.8865	-4.9170
C	1.8783	-2.4602	-0.5151
H	-1.5861	4.6586	-2.6057
C	2.4790	-3.2088	-1.5875
H	-4.5038	3.4557	-0.1626
C	2.0653	-2.6693	-2.7447
H	-5.8185	5.1837	-0.8809
C	1.2157	-1.5397	-2.4185
H	0.1327	-1.6995	4.8275
C	0.7302	-1.0867	-4.7905
C	1.9164	-0.7370	-5.4061
C	2.1473	-1.0831	-6.7193
C	1.1925	-1.8101	-7.4084
H	-0.6262	-2.6128	-7.2912
H	-1.0078	-2.0180	-5.0721
C	-2.0644	2.6866	-0.8960
H	-3.1093	0.8793	4.4442
C	-1.8561	2.4919	0.5127
H	-3.7447	1.1953	6.6553
C	-2.2767	3.3499	1.5682
H	0.1028	1.0884	7.7719
C	-1.8971	2.7972	2.7390
C	2.8860	-3.8301	1.3179
C	0.5130	-0.7214	-3.3194
C	3.8587	-3.5898	2.2912
C	-0.3582	0.3433	-3.0580
C	4.6810	-4.5872	2.7331
C	-1.1729	1.0367	-4.0010
C	4.5588	-5.8730	2.2329
C	-1.9058	1.9452	-3.3406
C	3.6166	-6.1133	1.2445
C	-1.5429	1.8827	-1.9357
C	2.7713	-5.1231	0.8183
C	5.3935	-6.9196	2.7465
C	-1.2247	1.5546	2.4256
C	-0.7219	0.6017	3.3420
N	0.6305	-0.8403	1.8293
C	0.0579	-0.5267	3.0599
N	1.1002	-1.4856	-1.0660
C	0.3978	-1.6226	3.9400
C	-2.8922	3.8414	-1.3115
C	-2.4491	4.7511	-2.2719
C	-3.2224	5.7665	-2.7400
C	-4.5070	5.9276	-2.2431
N	6.0526	-7.7236	3.1983
C	-4.9726	5.0623	-1.2453
C	-4.1781	4.0373	-0.8103
C	0.0217	-2.1442	-6.8154
C	-0.2083	-1.7812	-5.4832
C	-1.1342	0.7880	4.7765
C	-5.3574	6.9742	-2.8013
C	-2.4613	0.9225	5.1102
C	-2.8443	1.1244	6.4321
C	-1.8706	1.2158	7.4079
C	-0.5417	1.0571	7.1020
C	-0.1707	0.8504	5.7732
N	-5.9855	7.7914	-3.2202
C	-2.2743	1.5234	8.7789
N	-0.6146	0.8829	-1.8175
N	-1.2334	1.4309	1.0601
H	-2.8928	6.3469	-3.3891
N	-2.5505	1.8250	9.8185
*