! UKS B3LYP ma-def2-SVP OPT NumFreq
%basis
NewGTO Hg "ma-def2-TZVP" end
end 

%scf
  maxiter 200
end

%pal 
	nprocs 16
end
* xyz 0 1
Hg	0.5177	0.2103	0.5721
H	1.0585	-4.5848	0.5770
H	-3.6611	-2.7229	2.5104
H	-4.1908	-0.4008	3.0801
H	2.3906	0.4441	-4.5745
H	-2.1342	4.3771	1.8476
H	-0.5870	5.1464	0.1124
H	1.8469	2.7662	-3.9730
H	1.7324	-3.8265	-3.8074
H	-1.5225	-5.3552	-0.3013
H	-1.8496	-7.5173	0.4609
H	2.5637	-3.8210	-1.2062
H	4.2078	-0.7022	-3.3330
H	-2.3431	1.5038	4.6838
H	5.7732	-1.7553	-4.6991
H	5.2945	-3.7717	-5.6621
H	-5.5232	3.7634	5.6034
H	3.3032	-4.8566	-5.1840
H	-5.9547	4.0736	3.3738
H	-4.5880	3.0742	1.7705
H	-1.9412	-1.4002	-1.0787
H	-0.7849	4.8231	-2.9453
H	-0.9583	-0.6156	-2.0134
H	-0.1933	6.8603	-3.8498
H	-1.4410	-2.0534	-2.4133
H	1.9040	7.6877	-3.5595
H	3.4361	6.5075	-2.3118
H	2.8363	4.4889	-1.3363
C	1.7735	-1.4846	-2.5754
C	1.1734	-2.2988	-1.6076
C	1.7488	-3.4331	-0.9804
C	0.9086	-3.8615	0.0117
C	-0.2205	-3.0177	0.0282
C	-1.2770	-3.0780	0.9732
C	-1.9712	-1.9613	1.4488
C	-3.1769	-1.9701	2.2560
C	-3.4692	-0.6945	2.5723
C	-2.4454	0.1307	1.9693
C	-2.4100	1.5509	2.0442
C	-1.6032	2.3914	1.2786
C	-1.6295	3.8369	1.2824
C	-0.7839	4.2610	0.3191
C	-0.2438	3.0972	-0.3319
C	1.5618	-0.1005	-2.6954
C	0.5824	3.1048	-1.4775
C	1.0416	1.9706	-2.1672
C	1.6783	2.0079	-3.4614
C	1.9834	0.7301	-3.7882
C	-1.5540	-4.4445	1.4877
C	-1.6166	-5.5097	0.6107
C	-1.8196	-6.8105	1.0657
C	-1.7069	-4.7119	2.8484
C	2.7932	-2.1443	-3.4462
C	4.0142	-1.5317	-3.7079
C	-3.3150	2.1931	3.0633
C	4.9544	-2.1640	-4.5334
C	4.6766	-3.3739	-5.0925
C	-3.0668	2.0210	4.4118
C	3.4786	-4.0182	-4.8195
C	-3.8876	2.6128	5.3683
C	2.5359	-3.3980	-3.9926
C	-4.9696	3.3733	4.9660
C	-5.2291	3.5552	3.6397
C	-4.4041	2.9569	2.6749
C	0.9525	4.4385	-2.0492
C	-1.1981	-1.4835	-1.6797
C	0.0716	5.1574	-2.8005
C	0.4289	6.3793	-3.3531
N	-0.0565	-2.0654	-0.9669
C	1.6664	6.8735	-3.1779
N	-1.5692	-0.6616	1.2825
C	2.5772	6.1710	-2.4325
C	2.2202	4.9546	-1.8551
Cl	2.3501	-0.8024	1.6026
N	-0.7419	1.9805	0.2900
N	0.9723	0.6720	-1.7179
H	-2.1289	-7.9085	2.6936
H	-1.9779	-6.1705	4.2089
H	-1.6804	-4.0117	3.4599
H	-3.7089	2.4977	6.2749
C	-1.9723	-7.0428	2.3920
C	-1.8994	-6.0017	3.2975
*