! UKS B3LYP ma-def2-SVP OPT NumFreq
%basis

end 

%scf
  maxiter 200
end

%pal 
	nprocs 16
end
* xyz 0 1
C	0.9564	6.8853	-3.4248
H	-2.7032	-4.3551	0.3554
C	0.0022	6.7158	-2.4337
C	-0.0989	5.4642	-1.8456
H	-3.7885	-3.1283	-1.5147
N	1.3004	1.5022	0.2357
H	-4.3241	-2.9070	-5.7272
C	-0.5066	-3.0353	1.5271
H	-6.3330	-1.7060	-5.7171
C	-1.3655	-2.6809	0.4905
F	2.3681	2.6400	4.1188
H	-6.7140	-0.0542	-4.1069
C	1.9437	-0.5722	2.2799
C	2.2484	-1.5659	3.2886
C	1.3804	-2.5914	3.1090
C	0.5342	-2.2347	1.9964
N	-0.8855	0.9988	-1.4927
F	2.4365	3.5942	-3.5574
C	-0.6909	-4.3751	2.1798
F	-1.0335	5.2858	-0.8710
C	-1.6279	-4.6200	3.1799
C	-1.7759	-5.8445	3.8132
C	-2.4507	-3.5051	0.0164
F	-5.1416	0.6785	-2.2541
C	-0.9564	-6.8853	3.4248
C	-3.0426	-2.8351	-1.0045
Fe	0.0000	0.0000	0.0000
C	-0.0022	-6.7158	2.4337
H	2.7032	4.3551	-0.3554
C	-2.3243	-1.5954	-1.1679
C	0.0989	-5.4642	1.8456
H	3.7885	3.1283	1.5147
C	-2.6154	-0.6440	-2.1404
H	4.3241	2.9070	5.7272
H	6.3330	1.7060	5.7171
H	6.7140	0.0542	4.1069
C	-3.6948	-0.9596	-3.1374
H	-2.9274	1.5094	-3.9506
C	-3.5349	-1.9380	-4.1143
H	-1.3376	3.3920	-3.6186
C	-4.4824	-2.2335	-5.0763
H	2.4244	5.9634	-4.4969
N	0.8855	-0.9988	1.4927
C	-5.6678	-1.5200	-5.0649
H	1.0479	7.7330	-3.8439
C	-5.8979	-0.5404	-4.1168
H	-0.5625	7.4316	-2.1667
F	-2.4365	-3.5942	3.5574
C	-4.9120	-0.2861	-3.1858
F	1.0335	-5.2858	0.8710
F	5.1416	-0.6785	2.2541
C	2.4507	3.5051	-0.0164
C	3.0426	2.8351	1.0045
C	2.3243	1.5954	1.1679
C	2.6154	0.6440	2.1404
N	-1.3004	-1.5022	-0.2357
C	0.5066	3.0353	-1.5271
C	1.3655	2.6809	-0.4905
F	-2.3681	-2.6400	-4.1188
H	2.9274	-1.5094	3.9506
C	3.6948	0.9596	3.1374
H	1.3376	-3.3920	3.6186
C	-1.9437	0.5722	-2.2799
C	3.5349	1.9380	4.1143
C	-2.2484	1.5659	-3.2886
H	-2.4244	-5.9634	4.4969
C	4.4824	2.2335	5.0763
C	-1.3804	2.5914	-3.1090
H	-1.0479	-7.7330	3.8439
C	5.6678	1.5200	5.0649
C	-0.5342	2.2347	-1.9964
H	0.5625	-7.4316	2.1667
C	5.8979	0.5404	4.1168
C	0.6909	4.3751	-2.1798
C	4.9120	0.2861	3.1858
C	1.6279	4.6200	-3.1799
C	1.7759	5.8445	-3.8132
*