! UKS B3LYP ma-def2-SVP OPT NumFreq
%basis

end 

%scf
  maxiter 200
end

%pal 
	nprocs 16
end
* xyz 0 1
Fe	0.0000	0.0000	-1.6799
N	-0.8064	-1.8288	-1.5999
N	0.8064	1.8288	-1.5999
N	-1.8288	0.8064	-1.5999
N	1.8288	-0.8064	-1.5999
H	-0.8714	-5.0348	-1.5159
H	-5.0348	0.8714	-1.5159
N	0.0000	0.0000	-3.4129
H	-3.1343	-4.0347	-1.4988
H	3.1343	4.0347	-1.4988
N	0.0000	0.0000	0.2359
H	-4.0347	3.1343	-1.4988
H	4.0347	-3.1343	-1.4988
C	-1.7700	4.6108	-1.4721
N	1.8788	-4.4297	0.9230
N	-1.8788	4.4297	0.9230
N	-4.4297	-1.8788	0.9230
N	4.4297	1.8788	0.9230
H	2.6940	-6.9407	0.6272
C	-2.0545	5.1978	-0.2450
H	-6.9407	-2.6940	0.6272
O	2.3679	-5.8935	2.5355
O	-5.8935	-2.3679	2.5355
H	2.9658	-8.1274	-1.3347
C	-2.5020	6.5294	-0.2068
H	-8.1274	-2.9658	-1.3347
O	0.0000	0.0000	-4.5197
H	2.4821	-7.1509	-3.3995
C	-2.6578	7.2288	-1.3690
H	-7.1509	-2.4821	-3.3995
H	5.0348	-0.8714	-1.5159
H	1.7610	-4.9478	-3.4816
C	-2.3770	6.6526	-2.5980
H	-4.9478	-1.7610	-3.4816
H	1.6215	-3.5963	0.7970
C	-1.9440	5.3518	-2.6419
H	-3.5963	-1.6215	0.7970
H	-1.6215	3.5963	0.7970
H	3.5963	1.6215	0.7970
H	6.9407	2.6940	0.6272
O	5.8935	2.3679	2.5355
H	0.9493	-4.8608	4.6863
C	-2.0545	4.7974	2.2111
H	-4.8608	-0.9493	4.6863
H	8.1274	2.9658	-1.3347
H	-0.0688	-4.2865	3.5928
H	0.0688	4.2865	3.5928
H	-4.2865	0.0688	3.5928
H	7.1509	2.4821	-3.3995
H	4.2865	-0.0688	3.5928
C	4.7974	2.0545	2.2111
H	0.4964	-3.3263	4.7435
H	-0.4964	3.3263	4.7435
H	-3.3263	-0.4964	4.7435
H	3.3263	0.4964	4.7435
H	4.9478	1.7610	-3.4816
H	3.5437	-3.9967	4.3237
H	-3.5437	3.9967	4.3237
H	-3.9967	-3.5437	4.3237
H	3.9967	3.5437	4.3237
H	2.8589	-2.5763	4.5947
H	-2.8589	2.5763	4.5947
H	-2.5763	-2.8589	4.5947
H	2.5763	2.8589	4.5947
H	4.8608	0.9493	4.6863
H	3.6669	-2.8281	3.2378
H	0.8714	5.0348	-1.5159
H	-2.8281	-3.6669	3.2378
H	-3.6669	2.8281	3.2378
H	2.8281	3.6669	3.2378
H	1.0925	-1.6505	3.3142
H	-1.0925	1.6505	3.3142
H	-1.6505	-1.0925	3.3142
H	1.6505	1.0925	3.3142
H	0.3696	-2.5219	2.1825
H	-2.6940	6.9407	0.6272
H	-2.5219	-0.3696	2.1825
H	-0.3696	2.5219	2.1825
H	2.5219	0.3696	2.1825
O	-2.3679	5.8935	2.5355
H	1.8498	-1.9603	1.9382
H	-2.9658	8.1274	-1.3347
H	-1.9603	-1.8498	1.9382
H	-1.8498	1.9603	1.9382
H	1.9603	1.8498	1.9382
C	1.2410	-3.1977	-1.5465
C	-1.2410	3.1977	-1.5465
C	-3.1977	-1.2410	-1.5465
C	3.1977	1.2410	-1.5465
H	-2.4821	7.1509	-3.3995
C	-0.1413	-3.0256	-1.5694
C	0.1413	3.0256	-1.5694
C	-3.0256	0.1413	-1.5694
C	3.0256	-0.1413	-1.5694
H	-1.7610	4.9478	-3.4816
C	2.1415	-2.1451	-1.5618
C	-2.1415	2.1451	-1.5618
C	-2.1451	-2.1415	-1.5618
C	2.1451	2.1415	-1.5618
C	-1.0798	-4.1072	-1.5312
C	1.0798	4.1072	-1.5312
C	-4.1072	1.0798	-1.5312
C	4.1072	-1.0798	-1.5312
H	-0.9493	4.8608	4.6863
C	-2.3099	-3.5637	-1.5236
C	2.3099	3.5637	-1.5236
C	-3.5637	2.3099	-1.5236
C	3.5637	-2.3099	-1.5236
C	1.7700	-4.6108	-1.4721
C	-4.6108	-1.7700	-1.4721
C	2.0545	-5.1978	-0.2450
C	-5.1978	-2.0545	-0.2450
C	2.5020	-6.5294	-0.2068
C	-6.5294	-2.5020	-0.2068
C	2.6578	-7.2288	-1.3690
C	-7.2288	-2.6578	-1.3690
C	2.3770	-6.6526	-2.5980
C	-6.6526	-2.3770	-2.5980
C	4.6108	1.7700	-1.4721
C	1.9440	-5.3518	-2.6419
C	-5.3518	-1.9440	-2.6419
C	5.1978	2.0545	-0.2450
C	2.0545	-4.7974	2.2111
C	-4.7974	-2.0545	2.2111
C	6.5294	2.5020	-0.2068
C	1.8643	-3.7032	3.2703
C	-1.8643	3.7032	3.2703
C	-3.7032	-1.8643	3.2703
C	7.2288	2.6578	-1.3690
C	3.7032	1.8643	3.2703
C	0.7102	-4.0764	4.1500
C	-0.7102	4.0764	4.1500
C	-4.0764	-0.7102	4.1500
C	6.6526	2.3770	-2.5980
C	4.0764	0.7102	4.1500
C	3.0817	-3.2394	3.9077
C	-3.0817	3.2394	3.9077
C	-3.2394	-3.0817	3.9077
C	5.3518	1.9440	-2.6419
C	3.2394	3.0817	3.9077
C	1.2283	-2.3172	2.6081
C	-1.2283	2.3172	2.6081
C	-2.3172	-1.2283	2.6081
C	2.3172	1.2283	2.6081
*