! UKS B3LYP ma-def2-SVP OPT NumFreq
%basis
NewGTO Zr "ma-def2-TZVP" end
end 

%scf
  maxiter 200
end

%pal 
	nprocs 16
end
* xyz 0 1
H	2.1467	2.2911	3.1312
H	2.9541	3.5703	3.6538
H	3.7057	2.4405	2.8051
H	1.1882	-3.5131	-3.4870
H	0.9710	4.9059	0.9753
H	1.2796	5.0745	2.5377
H	3.4141	5.1554	0.4799
H	4.4803	4.1874	1.1791
H	3.7275	5.3062	2.0425
H	-1.5721	-2.9235	-4.8736
H	-1.0633	-3.2059	-7.1223
H	4.6956	0.1191	-3.5883
H	0.1451	-2.7041	-9.0673
H	1.6464	-2.2297	-8.7837
H	1.8349	4.5164	-1.4130
H	1.5405	4.9429	-2.9260
H	5.2279	-1.5276	-2.3296
H	4.4233	0.9857	0.1401
H	5.6152	0.4715	-0.7961
H	5.1468	-0.4060	0.4583
Zr	-0.1563	-0.0827	0.2636
H	0.4466	-1.8869	5.1365
H	-2.9220	2.0470	4.1159
H	-4.0996	2.8697	2.0866
H	0.4019	1.4821	5.3099
H	0.0744	2.0072	7.5546
H	-3.1082	-0.4156	7.6781
H	-2.8277	-0.9106	5.4314
H	-2.5616	0.7595	9.6450
H	-1.9343	2.2060	9.3705
H	-0.9889	0.9967	9.8227
H	-3.5678	3.7856	-1.8854
H	-5.3995	5.1965	-2.2222
H	-7.6542	2.9273	0.2020
H	-5.8273	1.5177	0.5794
H	-8.6576	4.8126	-0.7843
H	-8.1010	5.1568	-2.2454
H	-7.6493	6.0384	-0.9873
H	0.4775	3.7925	2.0130
C	2.5200	3.6718	1.6225
C	2.8633	2.9259	2.9206
C	1.1916	4.4299	1.8036
H	0.1583	2.8395	-1.5603
C	3.6366	4.6702	1.3018
H	-1.1739	3.8583	-3.2299
H	-0.8572	2.3377	-3.6141
C	2.4272	2.3858	-3.9519
C	3.5056	1.6066	-4.2623
H	0.4214	5.1554	-1.8022
C	3.9345	0.6470	-3.3725
C	-0.8957	-2.3879	-5.2726
C	3.2783	0.4344	-2.1639
C	-0.5939	-2.5515	-6.6182
H	3.0967	-0.8201	-0.5433
C	1.1473	4.5727	-2.1082
C	3.8507	-0.5226	-1.1290
C	4.4682	-1.7840	-1.7649
C	4.8457	0.1945	-0.2545
C	-2.7696	0.9274	-1.4231
C	-3.2649	0.9475	-2.7750
C	-1.4389	-0.3580	-2.6506
N	2.4480	2.7716	0.4613
C	0.2927	-2.0853	-2.1786
C	0.4508	-1.9545	4.1882
C	-0.2235	-1.0801	3.2760
C	-1.0616	-0.0299	3.6563
C	-1.8608	0.7422	2.7978
C	-2.7848	1.7494	3.2237
C	-3.4276	2.1996	2.1148
C	-2.9047	1.4767	0.9967
C	-3.3365	1.6101	-0.3421
C	-1.2007	0.2491	5.1265
C	-0.3305	1.1027	5.7794
C	-0.5247	1.4088	7.1244
H	4.7766	-2.3887	-1.0576
C	-1.5608	0.8681	7.8413
C	-2.3981	-0.0084	7.1961
C	-2.2271	-0.3087	5.8553
H	2.1501	3.0603	-4.5593
H	3.9583	1.7261	-5.0887
C	-1.7819	1.2407	9.2997
C	-4.5097	2.5025	-0.6033
C	-4.3917	3.6048	-1.4502
C	-5.4921	4.4408	-1.6543
C	-6.6997	4.2023	-1.0600
C	-6.8233	3.1073	-0.2226
C	-5.7301	2.2650	0.0019
C	-7.8820	5.1362	-1.2904
H	1.9899	-4.6635	-1.4435
C	1.6140	1.8155	0.4281
H	1.6196	-3.6077	3.8011
C	2.1451	1.2066	-1.8684
C	1.7235	2.2093	-2.7562
H	-4.0324	1.4149	-3.0846
C	0.5939	3.1754	-2.3956
H	-2.5170	0.0300	-4.4566
H	3.8347	-3.9943	0.3207
H	5.1597	-5.8015	0.9146
C	-0.4688	3.2289	-3.4903
H	2.0823	-7.3976	2.9617
H	0.7395	-5.6027	2.3492
H	5.5708	-7.7719	2.1377
N	-1.6516	0.1084	-1.3611
H	4.3056	-8.7509	2.1955
N	0.3267	-1.9852	-0.7978
H	4.7184	-7.8980	3.4866
N	0.0443	-1.4864	1.9737
N	-1.9309	0.5977	1.4209
H	1.6679	-0.2895	-6.8877
N	1.4274	0.9576	-0.6639
H	1.2046	-0.0290	-4.6271
O	0.7313	1.4190	1.3738
H	0.5297	-1.1547	-9.1842
H	3.7933	-2.2379	-2.3106
H	-0.0600	3.5251	-4.3289
C	1.0371	-3.2364	-2.5917
C	1.4863	-3.8585	-1.4768
C	1.0593	-3.0731	-0.3562
C	1.3185	-3.3717	0.9921
C	0.8386	-2.6155	2.0747
C	1.0944	-2.8940	3.4598
C	-2.4439	0.1830	-3.5217
C	-0.4641	-1.2816	-3.0407
C	2.1559	-4.5735	1.3002
C	3.4707	-4.6775	0.8725
C	4.2657	-5.7546	1.2314
C	3.7777	-6.7688	2.0484
C	2.4519	-6.6975	2.4349
C	1.6482	-5.6234	2.0701
C	4.6712	-7.8967	2.5072
C	-0.2256	-1.4587	-4.5122
C	0.3633	-1.7928	-7.2349
C	1.0139	-0.8440	-6.4786
C	0.7326	-0.6819	-5.1301
C	0.7013	-1.9872	-8.6968
*