! UKS B3LYP ma-def2-SVP OPT NumFreq
%basis

end 

%scf
  maxiter 200
end

%pal 
	nprocs 16
end
* xyz 0 1
H	-0.9651	4.8522	-1.4327
H	-2.0320	3.4735	-3.1558
C	2.3740	-3.0295	1.7697
C	0.8756	2.5093	1.5266
C	0.2772	3.3744	0.6674
H	-3.3132	-1.7259	-3.4588
H	-2.4474	-3.7414	-2.4153
C	0.7675	-2.8883	0.2034
C	2.9478	-1.0170	3.7849
C	1.7168	-3.7744	0.8315
C	2.3294	-1.5577	4.8957
C	1.8249	-1.7229	1.6975
H	0.3133	-4.7536	-2.8985
C	2.9942	-1.9902	5.9986
C	2.1180	-0.6806	2.5674
H	0.1558	-7.0064	-3.3167
C	4.3618	-1.6898	6.0614
C	1.6694	0.6440	2.4640
C	5.0095	-1.1101	5.0094
C	1.9899	1.7194	3.3205
C	4.2849	-0.7767	3.8341
C	1.4664	2.8728	2.7812
H	-4.6523	1.1937	-2.7865
C	5.1119	-2.0353	7.2848
C	0.3920	4.8072	0.9546
H	-6.0597	1.5842	-4.6197
C	1.5072	5.5611	0.6265
H	-2.9045	1.3739	-7.0640
C	1.6125	6.9007	0.9310
H	-1.5265	0.9474	-5.2060
C	0.6139	7.5015	1.6216
C	-0.5308	6.8136	1.9537
C	-0.6171	5.5250	1.6337
C	0.7296	8.9162	2.0277
C	-0.3857	3.0230	-0.5275
C	-0.9869	3.9211	-1.4620
C	-1.5929	3.1551	-2.4006
C	-1.4497	1.8005	-2.0433
C	-2.0775	0.7011	-2.6618
C	-1.8917	-0.6145	-2.2604
C	-2.6323	-1.7679	-2.8266
C	-2.1496	-2.8733	-2.2689
C	-0.7442	-5.6337	-0.0556
C	-1.0751	-2.4738	-1.3937
C	-0.2425	-3.3359	-0.7272
N	5.6705	-2.2876	8.1735
N	0.8936	-1.6538	0.7063
N	0.9837	1.1126	1.3494
N	0.7846	9.9855	2.3648
C	-0.3373	-4.7806	-1.0203
C	0.0060	-5.3183	-2.2291
C	-0.0870	-6.6610	-2.4886
C	-0.5583	-7.4900	-1.4733
C	-0.8864	-7.0064	-0.3020
C	-0.6635	-8.9648	-1.7472
C	-2.9633	1.0135	-3.8604
C	-4.3043	1.2207	-3.6483
C	-5.1435	1.4791	-4.7421
C	-4.5973	1.5662	-5.9784
C	-3.2582	1.3469	-6.2031
C	-2.4389	1.0796	-5.0873
C	-5.4461	1.8305	-7.0789
N	-0.6560	1.7344	-0.8966
N	-1.0078	-1.1131	-1.3561
H	3.0464	-3.3209	2.3403
H	2.4717	1.6593	4.1134
N	-0.7887	-10.0431	-1.9508
H	2.3588	7.3873	0.6657
N	-6.1166	2.0498	-8.0040
H	2.5646	-2.4588	6.6766
Zn	0.0676	0.0277	-0.0739
H	5.9208	-0.9329	5.0615
H	4.7221	-0.4013	3.1052
H	1.8543	-4.6725	0.6374
H	1.4921	3.7228	3.1577
H	2.2128	5.1436	0.1848
H	-1.2297	7.2432	2.3944
H	-1.3909	5.0685	1.8737
H	1.4020	-1.6328	4.8860
H	-1.2117	-7.5711	0.3619
H	-0.9338	-5.3033	0.7911
*