! UKS B3LYP ma-def2-SVP OPT NumFreq
%basis

end 

%scf
  maxiter 200
end

%pal 
	nprocs 16
end
* xyz 0 1
H	3.7050	2.4613	-3.4952
H	4.8711	1.3736	-3.6196
H	-2.0398	-3.1671	2.2463
H	-4.8500	-1.3844	3.7973
H	-3.2752	2.7130	0.9134
H	-3.6761	-2.4673	3.7032
H	-5.6599	-3.4125	2.8660
H	-4.6134	-3.2805	1.6623
H	-5.8066	-2.2244	1.8040
H	-4.7202	2.1018	2.5274
H	-5.3159	0.8261	3.2888
H	-6.8179	1.5999	1.6056
H	3.3382	-2.7182	-0.7143
H	-6.3611	0.0966	1.3058
H	-5.7073	1.3093	0.4915
Co	-0.0201	-0.0258	-0.0146
H	-3.3236	4.5988	-0.4807
H	-2.2981	5.7230	-0.9719
H	2.1236	3.1806	-2.0014
H	-3.2443	6.3197	1.1111
H	-1.6609	6.1386	1.2639
H	-2.6506	4.9873	1.7694
H	-0.3333	5.8521	-2.0830
H	1.0253	5.0667	-2.3877
H	1.4998	7.0299	-1.1828
H	1.8925	5.7609	-0.2900
H	0.5356	6.5561	0.0037
H	5.2874	-0.8680	-3.1749
H	4.7651	-2.1123	-2.3178
H	5.6987	3.4205	-2.7309
H	6.9452	-1.5633	-1.6371
H	5.9112	2.2262	-1.6865
H	5.9430	-1.2849	-0.4209
C	-2.1878	-1.2337	1.7378
H	4.7145	3.2680	-1.4788
C	-2.5398	2.1296	0.7672
H	2.3998	-5.7063	1.2342
H	3.4288	-4.5889	0.7348
H	3.2978	-6.2810	-0.8825
H	2.6913	-4.9384	-1.5076
H	1.7121	-6.0948	-0.9897
H	6.4893	-0.0661	-1.3033
C	-2.6310	0.8452	1.2671
H	-0.8479	-4.9711	2.7927
H	0.4440	-5.8217	2.3819
C	-1.4571	2.6264	0.0700
C	-3.4582	-0.9331	2.3652
H	-1.5258	-6.8643	1.5699
H	-0.5910	-6.4345	0.3437
H	-1.8739	-5.5544	0.7190
C	2.6190	-2.1235	-0.5367
C	-1.5812	-2.4707	1.7911
C	-3.7414	0.3629	2.0623
C	-1.3726	3.9852	-0.4146
C	-4.2803	-1.8940	3.1681
C	-5.1701	-2.7828	2.2969
C	1.6722	2.4907	-1.5296
C	1.5583	-2.6045	0.2019
C	-0.3544	-2.7709	1.2301
C	-4.9655	1.1485	2.4209
C	0.4695	2.8100	-0.9340
C	-6.0614	1.0277	1.3609
C	2.2724	1.2447	-1.4940
C	2.7108	-0.8386	-1.0367
C	-2.4487	5.0213	-0.2900
C	-2.5064	5.6752	1.0866
C	1.4870	-3.9527	0.7175
C	0.2869	-4.0581	1.3535
C	-0.1616	4.1111	-1.0231
C	3.5233	0.9362	-2.1449
C	3.8093	-0.3626	-1.8510
N	-1.6831	-0.1342	1.0796
C	5.0139	-1.1554	-2.2678
C	0.4050	5.3407	-1.6665
C	6.2047	-1.0040	-1.3228
C	2.5447	-4.9978	0.5581
C	1.1500	6.2534	-0.6973
C	2.5632	-5.6352	-0.8301
C	4.3238	1.8892	-2.9757
C	-0.2924	-5.2632	2.0272
C	5.2446	2.7811	-2.1433
C	-1.1476	-6.1046	1.0801
N	0.4305	-1.8861	0.5279
N	-0.3245	1.9138	-0.2484
N	1.7735	0.1492	-0.8288
N	-0.8183	-0.4927	-1.6105
O	-0.6048	0.0678	-2.6082
*