! UKS B3LYP ma-def2-SVP OPT NumFreq
%basis

end 

%scf
  maxiter 200
end

%pal 
	nprocs 16
end
* xyz 0 1
H	1.2778	-5.0245	-2.0030
H	2.3064	-1.0332	-4.4355
H	2.2404	-7.1224	-1.9682
H	0.3443	3.7594	-3.4542
H	-1.0056	-2.3263	5.0526
H	-2.3790	-3.4097	6.6047
H	-4.6870	-3.3582	6.2901
H	-5.6175	-2.3428	4.4554
H	-4.2111	-1.3194	2.8219
C	-0.2839	2.9774	-0.4462
C	1.6862	-2.9205	-0.4455
C	1.7142	-1.9939	-1.4769
C	-1.5714	-1.1907	2.7193
C	2.4342	-4.2076	-0.5423
C	0.4340	-3.8914	1.4935
C	-1.6513	-0.5013	-0.7316
H	-3.1343	-2.9986	-2.2886
C	0.8355	-2.7940	0.6614
C	-1.5558	0.1881	2.5163
H	2.9604	3.4236	-6.3719
H	-5.0596	-1.7273	-1.8306
H	-0.2358	0.1499	-5.4530
C	-1.9947	5.3713	0.5279
H	2.6088	2.7171	-4.1675
C	-1.0900	4.6186	1.2559
C	-2.8236	0.2450	-0.5180
H	0.1048	0.9335	-7.6805
C	-1.0952	2.1962	1.7443
H	1.7611	2.5384	-8.0856
C	-1.9075	2.3575	2.9147
C	-0.4904	5.1974	2.3734
C	-1.8307	-1.7062	-1.4170
C	-2.1918	1.1368	3.3847
C	-0.5547	-3.4455	2.2987
C	2.0172	0.5866	2.1466
C	4.2684	1.3139	1.8821
C	-2.2789	6.6869	0.8866
C	-0.1252	3.9798	-1.4617
C	3.5920	-6.7028	-0.5713
C	-0.7279	-2.0509	2.0028
C	-1.6886	7.2213	2.0004
C	2.3751	-2.1900	-2.7386
C	1.7858	0.5455	0.7677
C	2.8886	0.9281	-0.0125
C	0.8355	0.9945	-3.1765
C	-0.7705	3.2145	0.8500
C	1.2214	-0.2768	-2.7646
C	-0.8109	6.4971	2.7446
C	4.0962	1.2981	0.5102
C	3.2196	0.9566	2.6960
C	-2.4636	-1.7694	3.7633
C	1.0969	1.4056	-4.5983
C	-4.0758	-0.2040	-0.9078
C	0.3209	1.9559	-2.2869
C	1.9974	-5.2101	-1.3958
C	3.5007	-4.4701	0.2572
C	2.5763	-6.4339	-1.3909
C	-1.9542	-2.3671	4.9099
C	4.0827	-5.7825	0.2293
C	-3.8278	-1.7473	3.5911
C	2.0369	-1.1622	-3.5230
C	-4.1183	-2.9458	5.6358
C	-4.6619	-2.3323	4.5453
C	0.2047	3.3505	-2.5961
C	-2.7665	-2.9680	5.8450
N	1.0171	-0.8112	-1.5023
N	0.0128	1.7377	-0.9699
N	-0.8784	0.8522	1.5260
N	0.1124	-1.6809	0.9868
C	2.0877	2.3386	-4.8776
C	-3.0612	-2.1584	-1.8286
C	0.4039	0.8427	-5.6265
C	1.5918	2.2468	-7.1876
C	0.6218	1.2823	-6.9506
C	-4.1961	-1.4089	-1.5564
C	2.2890	2.7623	-6.1846
Si	0.0667	0.0328	0.0026
H	-0.2295	4.9276	-1.3476
H	-2.1982	3.1883	3.2942
H	-2.7264	0.9319	4.1542
H	0.8121	-4.7740	1.4872
H	-1.0440	-3.9594	2.9447
H	2.7836	0.9424	-0.9659
H	-2.4175	4.9782	-0.2396
H	4.8267	1.5261	-0.0700
H	0.1355	4.6952	2.8976
H	5.1099	1.5796	2.2617
H	-2.8945	7.2118	0.3690
H	3.3256	0.9775	3.6494
H	-1.8906	8.1216	2.2619
H	-0.4076	6.8889	3.5219
H	1.3017	0.3333	2.7343
H	-2.7503	1.1062	-0.0956
H	-1.0557	-2.2302	-1.6256
H	-4.8599	0.3146	-0.7130
H	3.8407	-3.7804	0.8338
H	2.9443	-2.9237	-2.9766
H	3.9747	-7.5806	-0.5805
H	4.8328	-5.9975	0.7871
*