! UKS B3LYP ma-def2-SVP OPT NumFreq
%basis

end 

%scf
  maxiter 200
end

%pal 
	nprocs 16
end
* xyz 0 1
C	3.2727	3.6878	-0.5623
H	-0.0899	-1.8289	-7.4664
C	2.8184	4.9772	-0.6917
H	-0.5608	-1.0775	-5.4008
C	3.6608	6.0481	-0.7480
H	-2.4161	-4.0655	-1.9259
H	1.9002	5.1260	-0.7430
C	5.0097	5.8451	-0.6367
H	-0.8377	-3.4184	-3.7062
C	5.4971	4.5412	-0.5334
H	2.8965	-2.5327	-4.0363
C	4.6168	3.4855	-0.5096
C	-0.1869	-1.8855	-2.3833
H	3.3934	-3.2186	-6.2488
N	-1.3228	-0.5298	1.4618
C	0.7975	-1.2117	-3.1224
N	0.5987	1.6210	1.1008
N	-2.0801	3.1636	9.5470
C	1.5003	-0.0833	-2.6875
H	-3.3248	-6.9064	0.8649
C	2.4942	0.6398	-3.4571
H	-6.4129	-4.3883	0.4858
C	2.9225	1.6760	-2.7143
H	-4.9481	-2.6176	0.4559
C	2.1795	1.6396	-1.4630
C	1.1122	-1.7173	-4.4953
C	-2.3096	-2.5367	0.4167
C	-1.5429	-2.5027	-0.7675
C	-1.7890	-3.3804	-1.8878
C	0.5324	-1.9527	-6.7852
C	-0.9276	-3.0148	-2.8731
C	0.2437	-1.5199	-5.5502
C	2.2978	-2.3685	-4.7290
C	2.5888	-2.7883	-6.0658
H	6.4129	4.3883	-0.4858
C	1.7038	-2.5634	-7.0694
C	2.0540	-2.9687	-8.3932
C	-3.2727	-3.6878	0.5623
C	-2.8184	-4.9772	0.6917
N	1.3228	0.5298	-1.4618
N	-0.5987	-1.6210	-1.1008
C	-3.6608	-6.0481	0.7480
C	-5.0097	-5.8451	0.6367
C	-5.4971	-4.5412	0.5334
Zn	0.0000	0.0000	0.0000
C	-4.6168	-3.4855	0.5096
H	-2.7829	-0.4247	4.3154
C	-5.8710	-7.0115	0.5882
H	2.4161	4.0655	1.9259
H	3.3248	6.9064	-0.8649
H	0.8377	3.4184	3.7062
H	-2.8965	2.5327	4.0363
N	2.0801	-3.1636	-9.5470
N	-6.5549	-7.9353	0.5429
H	-3.3934	3.2186	6.2488
H	0.0899	1.8289	7.4664
H	0.5608	1.0775	5.4008
H	-3.5709	-2.2989	2.9558
H	4.9481	2.6176	-0.4559
C	0.1869	1.8855	2.3833
C	-0.7975	1.2117	3.1224
N	6.5549	7.9353	-0.5429
C	-1.5003	0.0833	2.6875
H	-1.9002	-5.1260	0.7430
C	-2.4942	-0.6398	3.4571
C	-2.9225	-1.6760	2.7143
C	-2.1795	-1.6396	1.4630
C	2.3096	2.5367	-0.4167
C	1.5429	2.5027	0.7675
C	1.7890	3.3804	1.8878
C	0.9276	3.0148	2.8731
C	-1.1122	1.7173	4.4953
C	-2.2978	2.3685	4.7290
C	-2.5888	2.7883	6.0658
H	2.7829	0.4247	-4.3154
C	-1.7038	2.5634	7.0694
H	3.5709	2.2989	-2.9558
C	-0.5324	1.9527	6.7852
C	-0.2437	1.5199	5.5502
C	-2.0540	2.9687	8.3932
C	5.8710	7.0115	-0.5882
*