! UKS B3LYP ma-def2-SVP OPT NumFreq
%basis
NewGTO Rh "ma-def2-TZVP" end
end 

%scf
  maxiter 200
end

%pal 
	nprocs 16
end
* xyz 0 1
C	-0.5063	-6.3315	0.2740
C	0.2159	-7.6459	0.5571
C	-0.5063	-8.5690	1.4810
H	-5.3113	0.1862	-2.9699
C	0.3103	-9.7770	1.9481
C	-0.4878	-10.7470	2.7786
C	-3.8509	-1.9954	-2.5660
C	-4.9636	-2.6733	-2.0869
C	5.4140	-0.3692	1.5521
C	0.5999	0.3304	-1.7657
C	4.3702	-3.2557	1.0549
C	4.4501	-3.8579	2.4377
N	-2.0015	0.5576	-0.4494
N	-0.6502	-1.9017	-0.5255
C	5.1519	-5.2101	2.5077
N	1.7178	-0.6198	0.6605
H	5.9489	2.9194	4.1392
H	-6.6654	-3.6578	-2.6204
H	-6.4342	-3.3134	-4.9179
H	-4.5778	-2.1757	-5.7387
H	-2.9562	-1.3392	-4.2811
C	5.2493	-5.8934	3.8018
C	5.8723	-7.2925	3.7415
H	-2.3710	3.6226	0.5838
H	-6.0307	1.2337	-1.9974
H	2.9279	4.4195	2.6882
H	3.1970	4.8125	1.1604
H	2.1060	5.6148	2.0123
H	-5.6412	2.9194	-0.7511
H	-4.5430	3.5919	0.1952
H	-4.5629	3.7668	-2.6603
H	-3.3890	4.3708	-1.7554
H	-4.9103	5.8601	-0.7498
H	-6.1076	5.2362	-1.6038
H	-3.9896	6.8481	-2.6000
H	-6.5933	9.1216	-1.4792
H	-6.1820	7.7946	-0.6851
H	-5.0483	8.7790	-1.2376
H	-0.0389	5.9286	2.1267
H	-1.4465	5.2110	1.9003
H	-1.5022	6.9202	0.4831
H	-1.1641	5.6743	-0.4560
H	4.5631	2.7590	-0.3038
C	-5.9189	-3.1800	-2.9576
H	3.9101	1.9621	3.6045
C	-5.7759	-2.9816	-4.3174
C	-4.6761	-2.3037	-4.8016
H	1.1262	1.1561	-1.7537
C	-3.7093	-1.8061	-3.9381
H	0.7638	7.5061	0.4858
H	1.0640	6.2855	-0.5015
H	-0.5812	8.5338	-1.1966
H	5.7904	-5.3327	4.4133
H	-0.2670	7.3168	-2.1864
H	1.9180	8.7862	-1.1657
H	1.8375	7.9803	-2.5448
H	1.8405	10.2827	-3.0207
H	6.2151	-8.8539	5.0469
H	0.4113	9.6931	-3.4342
H	6.5280	-7.4241	5.6941
H	0.5756	10.5117	-2.0688
H	5.0119	-7.9073	5.5144
H	1.7875	-3.8597	0.3383
H	6.5766	3.7452	0.2519
H	-5.9047	-0.3043	-1.5674
C	-0.5322	2.8798	0.8108
C	-1.8605	2.8401	0.4150
H	7.2860	3.8281	2.4670
C	-2.5277	1.7998	-0.1929
H	-3.3298	-4.8116	-1.8667
C	-3.8635	1.9062	-0.7443
H	-2.7433	-4.2239	-3.2354
H	-2.0509	-5.4914	-2.5464
C	2.7480	1.5384	1.2290
C	1.5925	2.3263	1.1092
C	1.4546	3.7614	1.4210
C	0.1360	4.0841	1.2557
C	2.5146	4.7386	1.8581
H	-0.0919	-6.0268	-1.7278
C	-4.6840	3.1610	-0.6852
C	-4.3572	4.1671	-1.7787
H	1.0705	-5.4968	-0.7683
C	-5.1420	5.4544	-1.6231
H	-0.4805	-5.7708	1.0895
C	-4.9015	6.4767	-2.7095
H	-1.4560	-6.5263	0.0734
C	-5.9010	7.6287	-2.7161
H	1.1027	-7.4422	0.9453
C	-5.9344	8.3986	-1.4149
H	0.3671	-8.1147	-0.3015
H	5.7356	0.3124	0.9263
H	-0.7939	-8.0570	2.2779
H	5.4673	-0.0230	2.4677
H	-1.3219	-8.8971	1.0257
H	5.9698	-1.1715	1.4739
H	1.0809	-9.4561	2.4801
H	0.6660	-10.2494	1.1547
H	0.0848	-11.4952	3.0485
H	-0.8276	-10.2926	3.5779
H	-1.2411	-11.0859	2.2521
C	-0.5698	5.4003	1.4790
C	-0.8070	6.2495	0.2658
C	0.3831	6.9562	-0.2440
H	-5.0733	-2.7923	-1.1506
C	4.0298	2.2325	1.5969
C	4.8404	2.7878	0.6034
C	5.9098	-7.9253	5.1216
H	-4.9361	6.0205	-3.5876
H	-6.8052	7.2682	-2.8987
C	4.4584	2.3118	2.9131
H	-5.6692	8.2508	-3.4509
C	0.1025	7.8631	-1.4490
H	1.1711	-0.4178	-2.0396
C	1.3346	8.5807	-1.9398
H	-0.1417	0.4241	-2.3995
C	1.0121	9.8860	-2.6835
N	0.3513	1.8413	0.7270
H	3.9694	-3.9210	0.4392
H	5.2874	-3.0646	0.7350
H	4.9284	-3.2232	3.0293
H	3.5303	-3.9606	2.7904
C	6.0324	3.3720	0.9349
Rh	-0.1308	-0.0241	0.0737
C	6.4540	3.4243	2.2482
C	5.6631	2.8906	3.2336
C	-4.1359	0.7306	-1.3689
C	-2.9597	-0.1330	-1.1720
C	-2.7980	-1.4455	-1.6360
C	-1.7329	-2.2947	-1.2906
C	-1.5991	-3.7154	-1.5915
C	-0.4583	-4.1464	-0.9938
C	0.1385	-2.9925	-0.3511
C	1.3955	-3.0033	0.2170
C	2.1647	-1.9197	0.6352
C	3.5596	-1.9918	1.0014
C	3.9776	-0.7153	1.2275
C	2.8179	0.1555	1.0363
H	6.0721	-5.0875	2.1632
H	4.6865	-5.8213	1.8815
H	4.3414	-5.9673	4.1883
H	6.7926	-7.2294	3.3821
C	-5.4624	0.4350	-2.0339
H	5.3422	-7.8640	3.1310
C	-2.5127	-4.6440	-2.3793
C	0.0882	-5.5436	-0.8833
*