! UKS B3LYP ma-def2-SVP OPT NumFreq
%basis

end 

%scf
  maxiter 200
end

%pal 
	nprocs 16
end
* xyz 0 1
H	0.2897	-3.7662	-3.8100
H	0.4546	-4.0215	-6.1483
H	1.3871	-2.8042	-5.6885
H	-0.0334	-2.5122	-6.3660
H	3.0602	-2.0458	-4.2000
H	5.9536	-1.3442	-2.4417
H	4.2155	-3.8445	-5.1163
H	4.1130	-5.9467	-4.1125
H	2.8230	-6.2539	-2.1914
H	1.7075	-4.4399	-1.2470
H	4.4550	-2.9521	-1.5587
H	6.0041	0.2978	2.6571
H	5.4199	-2.4136	-0.3968
H	5.4176	-0.2558	-1.3969
H	4.4550	-0.7931	-2.5562
H	5.4665	-1.7196	1.5398
H	4.5401	-1.5553	2.8356
H	4.4930	0.8009	2.5020
H	5.4182	0.6366	1.2071
H	2.1504	-3.0722	3.5530
H	3.3837	-3.7548	5.4141
H	4.3757	-2.1608	6.8094
H	4.1567	0.1095	6.3187
H	2.8649	0.7858	4.5024
H	0.4511	-1.4567	5.2426
H	1.0370	0.6126	6.2484
H	-3.0186	1.8413	4.7090
H	-3.6073	-0.9271	4.2603
H	-4.1549	0.2637	3.3424
H	-4.7774	2.5770	2.0445
H	-4.2786	1.8868	-3.3031
H	-5.4135	2.5643	-5.2154
H	-0.7518	2.4050	-5.2054
C	-1.0539	0.2068	-2.9384
C	-1.1573	-0.7943	-3.9780
C	-2.2123	-0.8992	-5.0469
C	-3.5539	-1.3960	-4.4931
C	-0.2674	-1.7929	-3.6770
C	-0.2042	-3.1303	-4.3861
C	0.4617	-3.1152	-5.7733
C	0.4185	-1.3758	-2.4654
C	1.5921	-1.9118	-1.9355
C	2.2841	-3.0545	-2.6181
C	3.0219	-2.8965	-3.7780
C	3.7012	-3.9671	-4.3270
C	3.6395	-5.2161	-3.7340
C	2.8854	-5.3955	-2.5929
C	2.2183	-4.3160	-2.0388
C	2.1462	-1.4630	-0.7281
C	3.4860	-1.7209	-0.2196
C	4.6895	-2.1583	-1.0152
C	5.1717	-1.0370	-1.9354
C	3.5106	-1.2911	1.0754
C	4.7372	-1.1824	1.9395
C	5.2058	0.2688	2.0899
C	2.1587	-0.8196	1.3790
C	1.6026	-0.6363	2.6477
C	2.3941	-1.0661	3.8417
C	2.5493	-2.4224	4.1212
C	3.2847	-2.8282	5.2240
C	3.8766	-1.8840	6.0505
C	3.7364	-0.5402	5.7674
C	2.9805	-0.1408	4.6766
C	0.3186	-0.0978	2.8167
C	-0.4552	-0.0447	4.0563
C	-0.2400	-0.7589	5.3656
C	-1.5347	0.7466	3.7992
C	-2.7279	0.8945	4.7032
C	-3.8876	0.0122	4.2505
C	-1.4180	1.1928	2.4183
C	-2.1098	2.2458	1.8232
C	-2.0108	2.5074	0.4702
C	-1.7875	2.1611	-1.6866
C	-1.6900	1.4431	-2.8746
C	-2.3923	2.0031	-4.0709
C	-3.7866	2.1080	-4.0849
C	-4.4645	2.5264	-5.2135
C	-3.7521	2.8917	-6.3435
C	-2.3745	2.8449	-6.3347
C	-1.7017	2.4177	-5.2070
N	-0.1612	-0.2166	-1.9604
N	1.3931	-0.8032	0.2195
N	-0.3380	0.5683	1.8054
N	-1.4252	1.6605	-0.4476
H	-1.3307	4.1457	3.4945
H	-2.5596	5.5728	4.8647
H	-4.9006	5.4628	4.8685
H	-3.0595	4.3606	0.1985
H	-2.7894	3.9636	-2.2356
H	-4.2118	3.1736	-7.1240
H	-5.9957	4.0003	3.4292
H	-1.8870	3.1066	-7.1063
H	-1.0816	-1.2102	5.6281
H	0.3178	-0.3380	7.3157
H	-0.4969	0.8591	6.6335
H	-2.4699	0.6492	5.6271
H	-4.6470	0.1322	4.8600
C	-2.9234	3.1888	2.6616
C	-2.2792	4.1040	3.4888
C	-3.0072	4.9534	4.3016
C	-4.3982	4.8978	4.2933
C	-5.0469	4.0218	3.4495
C	-4.3235	3.1723	2.6291
C	-2.6304	3.6160	-0.2097
C	-2.4853	3.3999	-1.5355
C	0.1936	0.1777	6.4924
Ni	-0.1254	0.3124	-0.0957
H	-1.9014	-1.5224	-5.7506
H	-2.3429	-0.0106	-5.4638
H	-4.2082	-1.4504	-5.2211
H	-3.8771	-0.7728	-3.8095
H	-3.4344	-2.2847	-4.0959
H	-1.1261	-3.4742	-4.4856
*