! UKS B3LYP ma-def2-SVP OPT NumFreq
%basis

end 

%scf
  maxiter 200
end

%pal 
	nprocs 16
end
* xyz 0 1
C	3.2405	-3.0134	0.5919
C	3.5910	-1.4264	3.0158
C	3.7102	-2.6246	3.7007
C	4.6965	-2.8202	4.6494
C	5.6009	-1.8188	4.9151
C	5.5212	-0.6429	4.2127
C	4.5335	-0.4509	3.2657
H	0.6473	-8.2952	-3.5114
H	-0.8276	-7.7167	-1.8561
Ni	0.1267	-0.3784	-0.2591
H	-2.6153	3.2921	-3.7858
H	-2.2205	4.6294	-3.0682
H	-0.9354	4.3702	-5.0056
H	0.0088	4.3407	-3.7554
H	-0.3849	3.0035	-4.4714
H	-4.5539	1.1561	-2.7191
H	-6.0158	1.6498	-4.4198
H	-5.2974	1.6580	-6.6066
H	-3.0891	1.1703	-7.0671
H	-1.6204	0.6483	-5.3667
H	-2.9538	-1.7775	-3.9329
H	-1.7085	-3.8134	-3.3930
H	2.0139	-4.5403	-3.5722
H	2.0225	-6.6917	-4.3902
C	0.6163	-7.4222	-3.1908
H	-0.8950	-5.5630	-1.0524
H	2.9615	-4.4932	-0.7888
H	1.5263	0.5246	5.7044
H	1.3141	-1.7174	6.2624
H	0.0462	-1.2615	5.4619
H	1.1677	-2.0921	4.7478
H	-0.6317	2.9045	4.4486
H	-2.4071	1.7546	5.4420
H	-2.3939	1.4495	3.9056
H	-1.8354	0.3927	4.9178
H	0.8541	4.3549	2.5852
H	-2.9722	3.4701	1.8918
C	-0.8069	2.4215	0.0041
C	-1.1840	3.5184	-0.8777
H	-1.4712	5.4977	-1.2963
C	-1.5832	2.9752	-2.0507
H	-1.3202	5.2232	0.2412
C	-1.9034	3.7446	-3.3077
H	0.5929	6.3153	-0.5542
C	-0.6923	3.8765	-4.2191
H	0.9896	4.8874	-0.0441
C	-1.4431	1.5437	-1.9123
H	0.8404	5.1584	-1.5817
C	-1.9711	0.5553	-2.7447
C	-2.9240	0.8887	-3.8542
C	-4.2474	1.1644	-3.5970
C	-5.1281	1.4554	-4.6168
C	-4.7055	1.4601	-5.9171
C	-3.3881	1.1667	-6.1869
C	-2.5022	0.8663	-5.1678
C	-1.6726	-0.7961	-2.5653
C	-2.2446	-1.8494	-3.3371
C	-1.5603	-2.9675	-3.0367
C	-0.5602	-2.6152	-2.0658
C	0.4945	-3.4293	-1.6693
C	0.5655	-4.8231	-2.2106
C	1.4330	-5.1742	-3.2168
C	1.4403	-6.4678	-3.7006
C	-0.2514	-7.0758	-2.2065
C	-0.2875	-5.7857	-1.7196
C	1.4615	-2.9922	-0.7723
C	2.6521	-3.7038	-0.4067
C	2.3896	-1.9036	0.8923
C	2.4618	-1.1531	2.0677
C	1.5058	-0.1988	2.3812
C	1.2189	0.3644	3.6902
C	1.6914	-0.1481	5.0272
C	0.9921	-1.4194	5.4095
C	0.2640	1.3187	3.5098
C	-0.5415	1.9537	4.6204
C	-1.9219	1.3305	4.7308
C	0.0124	1.4106	2.0763
C	-0.5843	2.4674	1.3796
H	-3.6094	5.3528	3.0497
C	-0.9923	3.6904	2.1262
C	-0.0504	4.5540	2.6715
C	-0.9745	4.9911	-0.6356
C	0.4980	5.3740	-0.7121
C	-2.3228	4.0214	2.2621
N	-0.8501	1.2303	-0.6975
N	-0.6737	-1.2780	-1.7380
N	1.3318	-1.8518	-0.0021
N	0.6759	0.3844	1.4272
H	-0.0703	1.8442	5.4607
C	-0.4299	5.6992	3.3329
C	-1.7600	6.0078	3.4565
C	-2.7051	5.1596	2.9414
H	4.0469	-3.2196	1.0059
H	3.1120	-3.3139	3.5191
H	4.7472	-3.6284	5.1090
H	6.2594	-1.9378	5.5606
H	6.1390	0.0333	4.3750
H	4.5038	0.3479	2.7900
H	2.6470	-0.3072	4.9893
H	0.2151	6.2623	3.6965
H	-2.0193	6.7901	3.8876
*