! UKS B3LYP ma-def2-SVP OPT NumFreq
%basis

end 

%scf
  maxiter 200
end

%pal 
	nprocs 16
end
* xyz 0 1
Zn	0.0446	-0.4084	0.0967
H	-5.4500	1.9026	-1.5811
H	-4.5247	1.7330	-2.8764
H	-6.0332	-0.0808	-2.7308
H	-4.5371	-0.6260	-2.5759
H	-0.4110	1.4215	-5.3218
H	-0.3175	0.3161	-7.3996
H	-1.0863	-0.6096	-6.3444
C	-3.5096	1.4315	-1.1220
C	-4.7318	1.3536	-1.9852
C	-5.2376	-0.0821	-2.1600
C	-2.1674	0.9467	-1.4267
C	-1.5979	0.6829	-2.6935
C	-2.3703	1.1803	-3.8835
C	-2.4827	2.5457	-4.1196
C	-3.2309	3.0067	-5.1956
C	-3.8668	2.1010	-6.0387
C	-3.7544	0.7356	-5.8026
C	-3.0061	0.2759	-4.7249
C	-0.3724	0.0335	-2.9030
C	-0.2218	-0.2115	-6.5781
N	-1.4163	0.9014	-0.2631
H	1.1118	1.1024	-5.6962
H	0.4366	-0.9224	-6.7233
H	3.0150	-1.9210	-4.7546
H	2.4273	-0.7780	-5.7116
H	4.5609	-0.1361	-4.9104
H	3.4570	0.8826	-4.3612
H	4.0413	-0.2567	-3.4021
H	3.2130	-4.3692	-0.2204
H	-1.4369	2.7567	5.8214
H	-0.0083	2.4628	6.4816
H	-4.5055	2.9778	1.5563
H	-5.4441	2.4201	0.3849
H	-5.9533	1.3109	2.4229
H	-5.3854	0.2508	1.3669
H	-4.4399	0.8022	2.5342
H	-5.4646	-0.4564	-1.2830
H	-0.3626	3.6837	3.9195
H	-0.4875	3.9726	6.2481
C	0.1875	1.7079	3.7830
C	0.1350	3.0494	4.4946
C	-0.5077	3.0619	5.8868
C	-0.5094	1.2883	2.5726
C	0.4124	-0.0457	-4.1427
C	-1.6365	1.8787	1.9735
C	0.2470	0.6917	-5.4449
C	-2.3136	3.0557	2.6416
C	1.4701	-0.8697	-3.8911
C	-3.0491	2.9150	3.8121
C	2.6804	-0.9902	-4.7776
C	3.7835	-0.0406	-4.3230
C	1.3288	-1.3419	-2.5098
C	2.0802	-2.3405	-1.8647
C	-2.1676	1.5157	0.7137
C	2.9656	-3.2638	-2.6711
C	-3.4933	1.8008	0.2107
C	2.3841	-4.1782	-3.5411
C	-4.7095	2.1814	1.0031
C	3.1873	-4.9972	-4.3261
C	-5.1627	1.0321	1.9148
C	4.5709	-4.9005	-4.2427
C	5.1525	-3.9848	-3.3739
C	4.3492	-3.1658	-2.5875
C	2.0712	-2.5767	-0.4787
C	2.7658	-3.6394	0.1923
N	0.2653	-0.7038	-1.9268
C	-3.6873	4.0166	4.3686
N	1.4717	-1.7502	0.4537
C	-3.5900	5.2601	3.7548
C	-2.8545	5.4008	2.5843
C	-2.2162	4.2992	2.0278
H	1.8646	1.4780	5.8280
H	2.3512	-0.0168	5.5284
H	4.1548	1.4830	5.2436
H	3.8107	0.7972	3.8387
H	3.3253	2.2920	4.1402
N	0.0685	0.1227	2.0960
H	1.0601	3.3898	4.5788
H	3.0292	-3.9345	2.2314
C	0.9989	-0.2793	3.0074
C	1.1121	0.7268	4.0763
C	2.1815	0.8675	5.1176
C	3.4844	1.4077	4.5326
C	2.6623	-3.4032	1.5335
C	1.8922	-2.1974	1.6866
C	1.7347	-1.4864	2.8945
C	2.4871	-2.0429	4.0889
C	3.8770	-2.0554	4.0857
C	4.5710	-2.4335	5.2289
C	3.8752	-2.7978	6.3770
C	2.4853	-2.7852	6.3793
C	1.7913	-2.4071	5.2355
*