! UKS B3LYP ma-def2-SVP OPT NumFreq
%basis

end 

%scf
  maxiter 200
end

%pal 
	nprocs 16
end
* xyz 0 1
C	-4.4436	0.7082	3.0856
C	5.1493	0.3208	6.0912
C	4.0022	-0.4649	6.0884
H	-4.6224	-1.5868	1.7557
H	-4.9348	-2.3087	0.3684
C	3.1560	-0.4548	4.9860
H	-6.8655	-1.2723	1.1789
C	1.1841	0.5875	2.8606
H	-6.4354	-0.5789	-0.1973
C	0.5963	1.0520	4.0897
H	-6.1231	0.1456	1.1959
C	-0.7467	0.9178	3.9312
C	-1.6681	0.5061	-2.5807
C	-0.9895	0.3946	2.6102
H	-4.5160	-0.4909	-2.9892
H	-5.3380	-1.2639	-1.8536
H	-4.5103	-2.8160	-3.4393
H	-3.8359	-3.1003	-2.0157
H	-3.0139	-2.3280	-3.1513
C	-4.4847	2.1404	-4.5102
Ni	0.4146	0.1229	0.0420
C	-0.2938	0.6554	-2.7733
N	-1.5133	0.0944	-0.1890
C	0.3379	1.0151	-4.0088
N	0.6616	0.2135	-1.8559
C	1.6370	0.7065	-3.8761
N	2.3113	-0.0859	0.2628
C	1.8400	0.1934	-2.5605
C	-2.4631	-0.2628	0.7904
N	0.2102	0.2663	1.9376
C	3.0453	-0.3039	-2.0525
C	-3.6741	-0.7013	0.1685
C	4.2038	-0.5210	-3.0160
C	-4.8425	-1.4249	0.8057
C	4.0348	-1.3294	-4.1339
C	-6.1869	-0.7206	0.7407
C	5.0854	-1.5063	-5.0283
C	-3.5193	-0.5479	-1.1809
C	6.3021	-0.8740	-4.8048
C	-4.4365	-1.1289	-2.2361
C	6.4710	-0.0649	-3.6884
C	-3.9012	-2.4630	-2.7572
C	-3.4995	0.4483	-5.9118
C	5.4219	0.1112	-2.7926
C	-2.1919	0.0156	-1.3817
C	3.2440	-0.5093	-0.6901
H	-0.0809	1.3958	-4.7722
C	-5.3422	-0.3223	5.0668
C	4.4550	-0.9311	-0.0769
H	2.3071	0.8122	-4.5421
C	-2.2345	-0.0003	2.1466
C	-2.6065	0.8608	-3.7143
C	4.3273	-0.6862	1.2370
H	5.2089	-1.3126	-0.5131
C	-3.3234	-0.1119	3.1674
C	3.0169	-0.1412	1.4610
C	-3.5605	1.8511	-3.5124
H	4.9860	-0.8464	1.9009
C	-3.2127	-1.0367	4.1989
C	-2.5767	0.1598	-4.9142
H	1.0535	1.3832	4.8555
C	2.5356	0.3040	2.6887
C	-4.2221	-1.1424	5.1486
H	-1.4083	1.1308	4.5766
C	3.4556	0.3409	3.8866
C	-4.4535	1.4385	-5.7098
C	4.6027	1.1266	3.8894
C	-5.4530	0.6026	4.0342
C	5.4488	1.1166	4.9932
*