! UKS B3LYP ma-def2-SVP OPT NumFreq
%basis

end 

%scf
  maxiter 200
end

%pal 
	nprocs 16
end
* xyz 0 1
F	-1.9954	4.3650	-2.3782
C	-2.8374	-2.3935	-4.1129
Fe	-0.1082	0.0021	-0.0392
C	-1.0864	3.2629	0.0012
N	-1.7179	0.9751	0.5931
H	2.7303	-0.4194	1.3119
C	-4.1593	-1.2348	2.4049
F	-2.5336	6.9663	-2.7415
N	-0.7697	-1.6751	0.8185
H	1.0994	0.5219	4.8187
C	-4.4683	-0.5739	3.5739
F	-2.4415	8.6861	-0.6617
N	1.3890	-1.0039	-0.8456
H	-0.5629	0.9196	3.0223
C	-5.6041	-0.8285	4.2975
F	-1.7136	7.7854	1.7901
N	0.6663	1.6901	-0.6910
H	4.2552	-0.7255	3.3006
F	-1.0590	5.2050	2.1309
C	-6.4539	-1.8156	3.8699
N	0.8754	0.2544	1.6838
H	3.4398	-1.0631	4.6366
C	-6.1563	-2.5251	2.7415
N	2.3615	-0.0365	3.2779
C	-5.0376	-2.2133	2.0178
H	3.9834	0.4189	4.3836
N	-1.1233	-0.3229	-1.7269
H	-1.5070	-2.3134	-1.6990
C	1.7861	-4.4449	0.4972
N	-2.2629	-1.3295	-3.3057
H	-2.5685	0.3903	-4.4291
C	1.2110	-5.6494	0.1455
H	-1.3039	1.5262	-2.6302
Cl	-4.3741	3.8952	0.2859
C	1.8891	-6.8368	0.2619
Cl	-5.6364	1.0827	1.2109
H	-2.9090	-3.2089	-3.5739
C	3.1852	-6.8368	0.7502
Cl	-2.7479	-3.5543	3.6979
H	-2.2652	-2.5623	-4.8896
C	3.7746	-5.6781	1.1247
Cl	0.1805	-4.8109	3.0013
H	-3.7301	-2.1246	-4.4190
C	3.0822	-4.4964	1.0108
C	-2.0192	2.2958	0.3403
Cl	3.0679	-4.3182	-2.2357
C	3.7746	1.1591	-2.7668
C	-3.4354	2.4875	0.5427
Cl	3.9182	-1.6442	-3.8416
C	3.6716	1.6378	-4.0572
C	-3.9533	1.3259	0.9602
Cl	3.8341	3.9272	-1.5510
C	4.7788	1.9468	-4.8061
C	-2.8746	0.3674	1.0462
Cl	1.4021	5.5354	-0.1040
C	6.0263	1.7408	-4.2799
C	-2.9376	-0.8829	1.6535
F	-3.6388	0.3903	4.0445
C	6.1579	1.2344	-3.0325
C	-1.8761	-1.7784	1.6307
C	5.0392	0.9734	-2.2835
F	-5.8954	-0.1292	5.4015
C	-1.7130	-2.9457	2.4555
C	-1.4984	4.6934	-0.1253
F	-7.5640	-2.0942	4.5781
C	-0.5457	-3.5179	2.1595
C	-1.8761	5.2056	-1.3398
F	-6.9892	-3.5059	2.3417
C	0.0237	-2.7626	1.0614
F	-4.8030	-2.9019	0.8896
C	-2.1965	6.5360	-1.5245
C	1.1023	-3.1431	0.2619
F	-0.0258	-5.6738	-0.3702
C	-2.1479	7.3657	-0.4770
C	1.6207	-2.3477	-0.7553
C	-1.7960	6.9279	0.7401
F	1.2894	-7.9898	-0.0731
C	2.5472	-2.7557	-1.7901
C	-1.4956	5.5890	0.9248
F	3.8701	-7.9875	0.8342
C	2.1037	-0.1218	1.9622
C	2.9134	-1.6439	-2.4505
F	5.0249	-5.6769	1.6279
C	2.2499	-0.5224	-1.8180
C	1.2311	0.3903	3.8851
F	3.6790	-3.3531	1.3903
C	0.3212	0.5935	2.8958
C	2.5815	0.8166	-1.9369
F	2.4645	1.7376	-4.6270
C	1.9063	1.8409	-1.2841
C	3.6115	-0.3793	3.9559
F	4.6555	2.4572	-6.0464
C	-1.6100	-1.4837	-2.1545
C	2.2982	3.2200	-1.1753
F	7.1246	2.0269	-5.0085
C	-2.1994	-0.0131	-3.6549
C	1.2911	3.8952	-0.6009
F	7.3904	0.9903	-2.5188
C	-1.5013	0.5992	-2.6656
C	0.2411	2.9567	-0.3530
F	5.2066	0.4942	-1.0280
*