! UKS B3LYP ma-def2-SVP OPT NumFreq
%basis

end 

%scf
  maxiter 200
end

%pal 
	nprocs 16
end
* xyz 0 1
H	-0.3428	3.7508	-3.3563
H	0.7130	1.9025	-4.6372
H	1.6166	-3.2743	-3.5966
H	-0.5140	-0.2326	-5.5466
H	1.8734	-4.5466	-1.4810
H	0.1804	-0.3903	-7.7740
H	2.3561	-1.0428	-8.2777
H	3.8660	-1.5136	-6.5586
H	3.1978	-1.3319	-4.3193
C	-2.0049	0.4073	4.5603
C	1.8989	-4.4025	1.2397
C	-2.7802	-0.6097	5.1364
C	3.2559	-4.5845	0.9625
C	-3.2960	-0.4612	6.4220
C	3.8942	-5.7782	1.3072
C	-3.0701	0.6963	7.1348
C	3.1824	-6.7967	1.9298
C	-2.3045	1.7089	6.5859
C	1.8311	-6.6250	2.2090
C	-1.7623	1.5637	5.3108
C	1.1962	-5.4368	1.8632
C	-0.7922	5.4658	-0.7497
H	-0.3642	7.4494	-0.9714
H	-2.1238	7.9356	-2.4215
H	-3.6289	6.2888	-3.0079
H	-3.3091	4.0967	-2.2654
N	0.7648	-1.5553	-1.0064
C	0.9717	-1.6352	-2.3758
N	-0.1158	-1.1865	1.6603
N	-1.2493	1.3036	0.9467
Cl	1.9968	1.2309	0.5629
C	1.4373	-2.9526	-2.7208
C	1.5719	-3.6492	-1.5669
C	-1.3149	3.0358	-0.8137
C	-0.5990	2.3234	-1.7753
C	-0.2141	2.8588	-3.0565
C	0.3661	1.8508	-3.7552
C	0.3570	0.6843	-2.9060
C	0.8453	-0.5731	-3.2814
C	1.2750	-0.7516	-4.6993
C	0.3801	-0.4846	-5.7445
C	0.7915	-0.5862	-7.0726
C	2.0814	-0.9693	-7.3719
C	2.9779	-1.2482	-6.3497
C	2.5800	-1.1401	-5.0144
C	-1.6483	4.4585	-1.1543
C	-0.9669	6.7635	-1.2307
C	-2.0156	7.0530	-2.0869
C	-2.8906	6.0814	-2.4478
C	-2.7040	4.7776	-1.9948
N	-0.2258	0.9939	-1.6914
Mn	0.0147	0.0052	0.0393
H	-0.3927	-1.7764	4.8162
H	-3.1593	2.5244	3.2336
H	-3.0166	3.9894	1.2282
H	1.0352	-3.4407	3.6556
H	-2.9548	-1.4042	4.6465
H	-3.8073	-1.1611	6.8093
H	3.7471	-3.8918	0.5369
H	-3.4399	0.7988	8.0036
H	4.8171	-5.8933	1.1149
H	-2.1475	2.5047	7.0789
H	3.6187	-7.6080	2.1643
H	-1.2226	2.2551	4.9470
H	1.3419	-7.3189	2.6359
H	-0.0848	5.2749	-0.1449
H	0.2719	-5.3262	2.0536
C	0.6142	-2.3515	1.8590
C	-0.1842	-1.7894	3.8892
C	-0.6324	-0.8396	2.9023
C	-1.4624	0.2571	3.1769
C	1.1736	-2.7765	-0.4961
C	-1.7790	1.2300	2.2184
C	1.2119	-3.1252	0.8606
C	-2.6402	2.3641	2.4539
C	-2.5707	3.1601	1.3548
C	0.5901	-2.7034	3.2533
C	-1.6921	2.5063	0.4195
*