! UKS B3LYP ma-def2-SVP OPT NumFreq
%basis

end 

%scf
  maxiter 200
end

%pal 
	nprocs 16
end
* xyz 0 1
H	-4.7010	-2.2078	0.8065
H	1.4718	0.7033	-4.6551
H	6.2344	1.8272	-1.0566
H	-6.2344	-1.8272	1.0566
H	2.0624	-0.7791	-4.5389
H	-4.3213	-0.9419	6.2845
C	6.7848	1.9227	-5.9587
C	2.0086	-2.2238	-0.0413
C	-2.0086	2.2238	0.0413
H	-5.1763	-0.6840	0.6880
C	3.2557	-2.6081	-0.6217
C	-3.2557	2.6081	0.6217
H	-6.4753	-2.7070	6.4599
C	3.6263	-1.6257	-1.4620
C	-3.6263	1.6257	1.4620
H	-2.2196	-0.0400	5.9049
C	2.6179	-0.6068	-1.3865
C	-2.6179	0.6068	1.3865
H	-6.8328	-1.9471	3.2971
H	-1.4718	-0.7033	4.6551
C	-2.6733	-0.5879	2.0771
C	2.6733	0.5879	-2.0771
H	-2.0624	0.7791	4.5389
C	1.7290	1.5748	-1.8989
C	-6.7848	-1.9227	5.9587
C	-1.7290	-1.5748	1.8989
C	1.8042	2.8712	-2.5309
H	6.9402	1.1790	-6.5789
C	-1.8042	-2.8712	2.5309
H	6.8328	1.9471	-3.2971
C	0.7050	3.5515	-2.1664
C	-2.2020	-0.1100	4.9269
C	-0.7050	-3.5515	2.1664
C	0.0566	-2.6882	1.3159
C	-0.0566	2.6882	-1.3159
C	4.5004	1.0336	-5.3557
C	1.2765	-3.0272	0.7961
C	-1.2765	3.0272	-0.7961
H	-7.6198	-2.1402	5.4950
C	3.7723	0.8455	-3.0670
C	-3.7723	-0.8455	3.0670
C	5.0165	1.3236	-2.6373
C	-5.0165	-1.3236	2.6373
C	5.9825	1.6418	-3.5889
C	-5.9825	-1.6418	3.5889
C	2.2020	0.1100	-4.9269
C	5.7390	1.5259	-4.9509
H	7.6198	2.1402	-5.4950
C	-5.7390	-1.5259	4.9509
H	-6.9402	-1.1790	6.5789
C	3.5167	0.6720	-4.4388
C	-3.5167	-0.6720	4.4388
Ni	-0.0000	-0.0000	-0.0000
H	3.7346	-3.4089	-0.4462
C	5.3077	1.5288	-1.1677
C	-5.3077	-1.5288	1.1677
H	-3.7346	3.4089	0.4462
H	4.4064	-1.6093	-2.0034
H	4.3213	0.9419	-6.2845
H	-4.4064	1.6093	2.0034
H	2.4998	3.1841	-3.0980
H	-2.4998	-3.1841	3.0980
N	1.6173	-0.9778	-0.4988
H	0.4766	4.4362	-2.4244
N	-1.6173	0.9778	0.4988
H	-0.4766	-4.4362	2.4244
C	-4.5004	-1.0336	5.3557
N	-0.5826	-1.4791	1.1297
N	0.5826	1.4791	-1.1297
H	-1.6395	3.8736	-1.0301
H	1.6395	-3.8736	1.0301
H	6.4753	2.7070	-6.4599
H	5.1763	0.6840	-0.6880
H	2.2196	0.0400	-5.9049
H	4.7010	2.2078	-0.8065
*