! UKS B3LYP ma-def2-SVP OPT NumFreq
%basis
NewGTO Br "ma-def2-TZVP" end
end 

%scf
  maxiter 200
end

%pal 
	nprocs 16
end
* xyz 0 1
Co	-0.1941	0.1550	0.5490
H	-5.1969	2.0868	1.6962
H	-0.6725	-0.5703	-1.7939
C	4.4617	-0.8553	1.7070
H	-0.8364	-4.8716	-0.8850
C	2.6527	0.7864	1.2652
C	3.5516	1.8911	1.4045
H	-5.0819	0.6885	-2.0994
C	2.9185	2.9848	0.9263
H	-5.1079	-1.2407	0.6324
H	-3.8679	-3.3448	1.0223
H	-7.4584	2.6398	1.4162
C	3.0192	-0.5458	1.4607
C	-2.7541	3.1414	-0.9683
H	-2.6601	-6.9721	2.8534
C	1.2569	5.0082	-2.0132
H	-7.3354	1.2329	-2.3675
H	-2.1468	-4.6917	2.9263
C	1.9262	7.2702	-1.5194
C	-2.4958	1.8935	-0.3150
C	1.4394	5.7300	0.2618
C	5.4044	-0.6657	0.7056
H	-2.2491	-8.1942	0.9146
C	-0.5779	2.9395	-0.4921
H	-1.3263	-7.1617	-0.9433
C	0.7223	3.3652	-0.2101
H	1.2269	-4.6281	1.4390
C	1.6449	6.2841	-2.4361
C	0.1007	-0.3770	-1.2771
C	6.7391	-0.9801	0.9175
C	1.8346	6.9900	-0.1694
C	2.4587	-2.9754	1.5046
C	-2.0926	-2.1631	0.8940
C	2.1112	-1.5844	1.3647
C	0.2553	-2.7454	1.1681
C	-7.6016	1.9767	-0.4993
C	1.1686	-0.4920	-1.8367
C	-5.6299	1.9131	0.8678
C	-3.1794	-0.3060	0.4976
C	-3.4756	0.9699	0.0162
C	-1.4322	-4.5608	1.0290
N	1.4250	1.2170	0.7867
H	4.4299	1.8605	1.7654
C	-4.9182	1.3308	-0.1804
C	-1.2004	-5.2973	-0.1167
C	-5.5614	1.0825	-1.3804
C	-4.1639	-1.3434	0.6698
C	-3.4882	-2.4836	0.8904
C	-6.9745	2.2385	0.7041
H	1.3622	5.5538	1.1920
C	-1.5760	3.7836	-1.0958
C	-2.2847	-6.5451	2.0939
C	-6.9009	1.4054	-1.5405
H	4.2442	-1.5171	3.6240
C	-1.9787	-5.1896	2.1338
H	6.5031	-1.9906	3.9938
N	-1.1420	1.7663	-0.0394
C	-2.0400	-7.2681	0.9424
H	2.0440	7.6641	0.4669
H	8.0674	-1.6847	2.2949
C	-1.4981	-6.6589	-0.1570
C	-1.0729	-3.1026	1.0423
C	1.3133	-3.6837	1.3873
Br	1.3776	-1.1774	-3.6255
N	0.7535	-1.4450	1.1587
N	-1.9007	-0.8064	0.6837
C	7.1526	-1.4743	2.1450
C	4.8786	-1.3667	2.9322
C	6.2238	-1.6603	3.1480
H	3.2727	3.8656	0.8776
H	3.3286	-3.3289	1.6520
H	1.9508	-0.2290	-1.3656
H	1.0654	4.3353	-2.6555
H	2.1821	8.1363	-1.8120
H	5.1318	-0.3158	-0.1347
H	1.7144	6.4713	-3.3648
H	7.3712	-0.8565	0.2199
H	-1.4326	4.6290	-1.5021
H	-3.6006	3.4582	-1.2600
C	1.6075	2.5664	0.5044
C	1.1523	4.7219	-0.6584
H	-8.5211	2.1920	-0.6106
*