! UKS B3LYP ma-def2-SVP OPT NumFreq
%basis

end 

%scf
  maxiter 200
end

%pal 
	nprocs 16
end
* xyz 0 1
Al	-0.3677	-0.4248	0.5962
P	0.7881	0.4115	-2.3869
H	-5.3200	0.6948	-0.6654
H	2.6635	1.8024	4.7845
H	-5.0472	-1.8332	-1.1609
H	-0.9311	-5.2473	-1.1826
H	1.5186	-5.1222	-0.6395
H	-2.4882	-4.3821	-2.8376
H	2.4509	4.2210	1.3611
H	6.3171	-3.6992	-1.5592
H	-2.1830	4.2783	1.6599
H	4.5450	2.2872	0.0871
H	-0.1154	2.8944	-1.1699
H	-5.2118	2.2194	1.8574
H	-1.7241	-0.5119	4.1087
H	-4.4321	-3.9468	0.8043
H	-1.1246	4.9247	-2.1183
H	4.3443	-2.2632	-1.3141
H	-6.7100	4.1272	1.8030
H	-3.0120	3.8457	-1.2796
H	2.1962	2.1386	-0.5809
H	-3.7713	-1.7654	3.8435
H	-2.4894	-2.7662	3.7015
H	-3.9888	-6.1673	-3.4618
H	5.5397	-0.4754	-2.8683
H	2.9819	-4.7730	1.7836
H	0.4589	1.3568	-5.0394
H	-0.0769	-1.5908	2.7862
C	-2.0196	-0.7959	3.1734
H	-5.6479	-6.8866	-1.8757
C	-2.9507	-1.9870	3.2821
C	4.2794	1.6721	-0.6881
H	-2.5134	-0.0037	2.7741
C	5.2286	0.9059	-1.3068
C	4.8357	0.0719	-2.3686
H	-6.0396	-5.7138	0.1311
C	3.7016	-0.8976	1.6588
C	3.5009	-0.0558	-2.7226
C	3.5189	0.2961	2.2489
H	3.2402	-0.6630	-3.4997
H	-3.2799	-2.2580	2.3659
C	3.6931	-4.5072	1.0416
H	-0.4350	3.4808	-5.9149
C	4.9150	-5.2812	0.8460
C	5.8016	-4.9294	-0.0572
H	4.5618	5.4954	4.7007
C	0.1129	1.9640	-3.0367
C	-0.2499	3.0169	-2.1931
C	-0.7605	4.1975	-2.7350
C	-0.8098	4.3565	-4.0712
C	-0.4061	3.3583	-4.9020
C	0.0877	2.1100	-4.4109
C	2.5278	0.6948	-2.0268
C	2.9074	1.5522	-1.0277
C	2.4869	-1.3771	1.0926
C	3.4985	-3.4047	0.2420
C	3.6451	3.6737	4.8972
C	3.9731	4.8178	4.2372
H	3.7953	5.8889	2.4342
C	-3.2018	0.5306	0.0196
C	3.5514	5.0315	2.9351
C	2.1469	0.6297	1.9801
C	-4.4790	0.1058	-0.5239
C	-4.3300	-1.2286	-0.7683
C	5.6383	-3.8895	-0.8283
C	0.2703	2.2429	1.9321
C	-0.3364	3.5069	2.2527
C	-2.9868	-1.6039	-0.3934
C	4.4428	-3.0998	-0.7303
C	-2.4497	-2.8653	-0.5966
C	-3.3869	-3.9937	-1.0111
C	-4.3828	-4.3951	-0.1123
C	-5.2635	-5.4506	-0.4764
C	-5.0821	-6.0813	-1.6579
C	-4.1005	-5.7034	-2.5361
C	-3.2631	-4.6661	-2.2110
C	-1.1053	-3.1832	-0.4421
C	-0.4794	-4.4394	-0.7656
C	0.8229	-4.3742	-0.5135
C	1.0560	-3.0294	-0.0239
C	1.5534	1.8467	2.2790
C	-1.5451	3.5043	1.6962
C	2.4172	2.8710	2.9583
C	2.2863	-2.5681	0.4113
C	2.8798	2.6807	4.2822
C	2.7801	4.0568	2.3240
C	-1.7637	2.2090	1.0971
C	-2.9519	1.8285	0.4289
H	4.2266	0.8329	2.7372
C	-3.9756	2.9022	0.3189
H	4.5630	-1.4058	1.6312
C	-3.8194	3.8952	-0.6255
O	-0.8831	-1.1035	2.3693
C	-4.7228	4.9637	-0.7217
C	-5.7272	5.0419	0.1714
C	-5.9351	4.0776	1.1147
C	-5.0484	2.9726	1.1843
H	-1.1474	5.2322	-4.4797
N	-2.2984	-0.5145	0.0737
N	-0.1526	-2.3284	0.0221
N	1.4993	-0.3789	1.2729
H	-6.3736	5.8290	0.1564
N	-0.6212	1.4324	1.2484
H	3.9322	3.5408	5.8809
O	0.0925	0.2387	-1.0681
O	0.6956	-0.6761	-3.4112
H	0.0672	4.2549	2.8389
H	5.1469	-6.0604	1.4324
H	-4.6195	5.7039	-1.4107
H	6.2185	0.9945	-1.0377
H	6.6751	-5.4793	-0.2009
*