! UKS B3LYP ma-def2-SVP OPT NumFreq
%basis

end 

%scf
  maxiter 200
end

%pal 
	nprocs 16
end
* xyz 0 1
C	-3.3025	2.6548	-3.4219
N	0.9653	-0.5583	1.6509
C	-3.9533	-7.9808	2.1148
H	-0.6443	-4.9967	-0.6838
N	0.1242	-1.8914	-0.6093
H	-3.9396	3.3400	0.0250
H	-1.3994	4.5087	1.9381
N	2.2744	-1.7120	2.9851
H	1.2378	-2.0289	-4.0413
H	1.2886	-3.3015	-4.9537
C	-1.1175	-3.9822	3.1537
H	2.0045	-1.9830	-5.4089
H	0.9884	4.5162	-3.9414
H	-4.0436	-2.1965	2.1705
H	1.4595	3.1205	-3.4036
H	-4.4315	-6.4620	-0.0058
H	-4.3114	0.1676	2.7448
H	1.4964	-0.8958	4.7059
H	-2.3139	1.8658	-0.9796
H	6.8309	-5.2904	-4.2583
H	0.2794	3.8725	-2.6987
H	6.4244	-4.5725	-5.5914
H	-4.3368	-4.7846	-1.6115
H	5.6555	-5.8569	-5.1265
H	-2.9374	-4.0816	-1.7018
H	-4.1475	-3.3371	-1.0391
H	-3.8126	3.9333	5.5568
N	-0.9653	0.5583	-1.6509
N	-0.1242	1.8914	0.6093
N	-2.2744	1.7120	-2.9851
H	-2.3624	-6.2915	3.3940
H	3.7018	-3.0701	2.6545
H	3.9766	-2.1861	3.9203
H	-1.2378	2.0289	4.0413
H	-0.0670	-0.3930	-3.2077
H	-1.2886	3.3015	4.9537
H	2.9028	-3.3282	3.9779
N	-1.7073	-0.3748	0.9519
H	-4.5378	-8.3056	1.4271
H	-2.0045	1.9830	5.4089
H	-1.4964	0.8958	-4.7059
C	2.4663	4.0933	-1.0174
H	-4.4292	-7.9407	2.9465
H	-3.2030	-8.5725	2.2031
H	-6.8309	5.2904	4.2583
C	0.2432	4.1639	0.7852
H	-6.4244	4.5725	5.5914
H	-5.6555	5.8569	5.1265
C	0.7096	2.9166	0.2343
C	4.4124	-3.1615	-1.9976
H	-3.7018	3.0701	-2.6545
C	5.3298	-3.9051	-2.7359
H	-3.9766	2.1861	-3.9203
C	2.0989	4.6654	-2.2390
C	3.4792	1.5003	-1.9188
C	5.1234	-4.1986	-4.0707
H	-2.9028	3.3282	-3.9779
H	-0.9884	-4.5162	3.9414
C	1.1274	-2.4920	-1.3486
H	-1.4595	-3.1205	3.4036
C	3.8387	6.0152	-0.5547
H	-0.2794	-3.8725	2.6987
C	4.6521	-2.9396	-0.5297
C	1.8176	2.8132	-0.5943
C	2.2596	-1.8536	-1.8501
C	3.3512	4.7673	-0.1690
C	2.2929	1.6134	-1.1129
C	0.8796	-3.8961	-1.4709
C	-4.4124	3.1615	1.9976
C	3.0303	-2.9767	-3.9664
C	3.7277	4.1914	1.1663
C	3.6230	0.2035	-2.2419
C	-5.3298	3.9051	2.7359
C	-5.1234	4.1986	4.0707
C	-2.4663	-4.0933	1.0174
C	-1.1274	2.4920	1.3486
C	3.2570	-2.6757	-2.6194
C	2.6079	5.9133	-2.5802
C	2.5077	-0.5016	-1.6619
C	3.4665	6.6071	-1.7494
C	-0.2432	-4.1639	-0.7852
C	-4.6521	2.9396	0.5297
Fe	0.0000	0.0000	0.0000
H	0.6443	4.9967	0.6838
C	3.9533	7.9808	-2.1148
C	1.9259	-1.4579	1.7204
C	-2.2596	1.8536	1.8501
C	-0.7096	-2.9166	-0.2343
C	-0.8796	3.8961	1.4709
C	0.7025	-0.2314	2.9386
C	-2.0989	-4.6654	2.2390
C	-3.0303	2.9767	3.9664
C	3.9704	-3.7345	-4.6615
C	1.1175	3.9822	-3.1537
H	4.0436	2.1965	-2.1705
C	-3.4792	-1.5003	1.9188
C	1.7777	-2.5332	-4.6542
H	6.1035	-4.2121	-2.3203
H	4.4315	6.4620	0.0058
C	-3.8387	-6.0152	0.5547
H	5.4869	-3.3400	-0.2785
C	1.4904	-0.9344	3.7766
C	-3.2570	2.6757	2.6194
H	3.9396	-3.3400	-0.0250
C	6.0968	-5.0575	-4.8302
H	4.3368	4.7846	1.6115
C	-2.5077	0.5016	1.6619
H	4.6809	-1.9963	-0.3496
H	2.9374	4.0816	1.7018
C	-1.8176	-2.8132	0.5943
H	4.1475	3.3371	1.0391
C	-3.3512	-4.7673	0.1690
C	3.3025	-2.6548	3.4219
C	-1.9259	1.4579	-1.7204
C	-2.2929	-1.6134	1.1129
H	1.3994	-4.5087	-1.9381
H	2.3624	6.2915	-3.3940
C	-0.7025	0.2314	-2.9386
H	0.0670	0.3930	3.2077
N	1.7073	0.3748	-0.9519
C	-3.7277	-4.1914	-1.1663
C	-3.9704	3.7345	4.6615
C	-3.6230	-0.2035	2.2419
H	4.3114	-0.1676	-2.7448
H	4.5378	8.3056	-1.4271
H	4.4292	7.9407	-2.9465
C	-2.6079	-5.9133	2.5802
H	2.3139	-1.8658	0.9796
C	-1.7777	2.5332	4.6542
H	-6.1035	4.2121	2.3203
C	-1.4904	0.9344	-3.7766
H	3.2030	8.5725	-2.2031
C	-3.4665	-6.6071	1.7494
H	-5.4869	3.3400	0.2785
C	-6.0968	5.0575	4.8302
H	3.8126	-3.9333	-5.5568
H	-4.6809	1.9963	0.3496
*