! UKS B3LYP ma-def2-SVP OPT NumFreq
%basis

end 

%scf
  maxiter 200
end

%pal 
	nprocs 16
end
* xyz 0 1
C	-2.1663	4.6411	-0.4760
C	-1.1115	4.9673	0.3852
C	-0.5670	6.2961	0.5455
C	0.3374	6.2195	1.5464
C	0.3919	4.8709	1.9884
C	1.3527	4.3461	2.8020
C	-0.4926	0.1640	-2.7706
C	-1.0738	-0.2473	-1.5849
C	-2.4807	5.5955	-1.5391
C	-3.7274	6.1798	-1.9365
C	-3.4811	7.1272	-2.9868
C	-2.1137	7.1527	-3.2260
C	-1.4798	6.2337	-2.3538
C	-2.8737	3.2754	-3.8870
N	0.7605	2.0133	2.4492
N	-1.3745	0.4589	2.0309
N	-2.6091	2.5337	0.7204
N	-0.5356	4.1065	1.2978
Co	2.0547	-3.1994	1.2036
H	-0.9613	-2.6383	2.6988
H	-3.3129	-2.0314	2.5083
H	4.6543	-3.1021	2.0962
H	-1.6611	7.7143	-3.8893
H	-4.2194	5.4268	-5.8953
H	3.4806	-0.8713	1.4859
H	-1.6639	5.3658	-6.0426
H	2.9771	-4.5160	3.4365
H	3.8498	-1.4031	-0.8737
H	0.8264	-3.1843	3.7052
H	5.9956	-0.9252	-1.5948
H	2.0107	-1.8754	-2.8375
H	7.3564	-2.6426	-2.3422
H	6.5238	-4.7642	-2.5106
H	-0.8197	3.6115	-4.3644
H	4.3936	-5.2591	-1.7433
H	4.3200	-5.6647	1.1734
H	-0.8804	-1.5364	-0.0853
H	5.1109	-7.8061	1.5314
H	3.8161	-9.6214	0.9907
H	1.7280	-9.3137	-0.0073
H	0.9044	-7.1736	-0.2976
H	0.0081	-5.6335	2.2151
H	-2.0728	-6.1724	3.0345
H	-3.9727	-5.5172	1.9140
H	-3.7952	-4.4522	-0.1199
H	-1.7113	-3.8367	-0.9241
C	0.8586	-0.4487	2.4973
C	-0.5334	-0.5933	2.3513
C	-1.2978	-1.7903	2.5230
C	-2.5871	-1.4641	2.3850
C	3.7364	-2.8482	2.3269
C	1.7765	-1.6144	2.5751
C	3.0849	-1.6073	1.9966
C	2.8119	-3.6197	3.0746
C	1.6305	-2.8780	3.2358
C	1.2600	-3.0553	-0.6231
C	2.5640	-3.6963	-0.6427
C	2.0275	-4.8337	0.0898
C	-4.0444	3.8796	-4.4195
C	0.7148	-4.1941	0.1168
C	3.9034	-3.3871	-1.1931
C	0.6559	-1.9122	-1.3218
C	4.3944	-2.0923	-1.1815
C	-3.6288	4.8425	-5.3772
C	1.2322	-1.4769	-2.5212
C	-2.2209	4.8113	-5.4573
C	6.4825	-2.8199	-2.0795
C	-1.7570	3.8455	-4.5288
C	5.9935	-4.0877	-2.1528
C	4.7086	-4.3855	-1.7020
C	0.6357	-0.4487	-3.2332
C	-0.4922	-1.2655	-0.8863
C	5.6806	-1.7988	-1.6159
C	3.7912	-6.3965	0.9509
C	4.2662	-7.6799	1.1619
Fe	-2.8138	5.2801	-3.5503
C	3.4997	-8.7606	0.8306
Ni	-0.9390	2.2725	1.6197
H	3.4647	2.8542	3.9194
C	2.5230	-6.1965	0.4056
H	3.3200	0.4533	3.5523
H	-4.5689	0.1299	1.6703
C	2.2367	-8.5776	0.2495
H	-5.5934	1.8275	-0.1668
C	1.7525	-7.2984	0.0623
H	-4.6688	3.6938	-1.4100
C	-0.6142	-4.6309	0.5898
H	-0.7941	7.0534	0.0555
C	-0.7514	-5.3612	1.7523
H	0.8365	6.9272	1.8858
C	-1.9998	-5.6931	2.2403
H	1.8819	4.9361	3.2887
C	-3.1351	-5.3215	1.5628
C	-3.0299	-4.6606	0.3649
C	-1.7781	-4.3004	-0.1202
H	1.0090	-0.1736	-4.0400
H	-0.8713	0.8617	-3.2534
H	-1.8473	0.1611	-1.2700
H	-4.6081	5.9444	-1.5768
H	-4.1572	7.6632	-3.4527
H	-0.5176	6.0536	-2.3175
H	-2.8480	2.5763	-3.2011
H	-4.9687	3.6796	-4.1616
C	1.5890	2.9960	2.9501
C	2.7661	2.4033	3.5019
C	2.6821	1.0858	3.3123
C	1.4175	0.8234	2.6639
C	-2.6473	-0.0899	2.0173
C	-3.7418	0.5299	1.5246
C	-3.7134	1.7140	0.8190
C	-4.7390	2.1834	-0.0716
C	-4.2401	3.2215	-0.7331
C	-2.9329	3.4882	-0.2253
*