! UKS B3LYP ma-def2-SVP OPT NumFreq
%basis
NewGTO Pd "ma-def2-TZVP" end
end 

%scf
  maxiter 200
end

%pal 
	nprocs 16
end
* xyz 0 1
Co	-0.9837	-3.2040	2.6564
H	2.8794	-3.5069	-2.7965
H	1.1969	-4.0171	-1.1158
H	-2.8614	-1.2303	1.0479
H	-3.7323	0.9970	0.6780
H	-2.8899	3.1035	-0.5916
H	-2.0874	5.2488	-1.8257
H	-0.3394	5.7963	-3.4284
H	3.4886	-1.4183	-4.2197
H	1.2606	-3.6068	1.1408
H	0.1806	-5.6208	2.2680
C	2.9693	6.7615	-5.3957
H	-2.3558	-5.4507	1.9309
C	2.6343	5.7053	-4.6212
H	-2.8639	-3.3756	0.5963
H	-0.4798	0.1183	1.9883
H	0.9094	1.9712	1.6335
H	2.6603	2.3233	3.0172
H	3.0329	1.0015	4.8095
H	1.6881	-0.8573	5.2052
H	2.3286	-2.9385	3.6405
H	4.0515	-5.5835	6.0520
H	0.0949	-4.9196	6.3035
H	-1.5654	-5.9669	4.5404
H	-2.8793	-7.4588	5.6363
H	-3.7842	-2.9519	5.9964
H	-4.3619	-2.4984	3.2752
H	-6.1539	-1.0707	3.0323
H	-5.9392	1.1596	3.5017
H	-3.9158	1.9891	4.1608
H	-2.0961	0.6076	4.3285
H	0.4191	4.4492	-6.5437
H	1.0019	6.2349	-7.8315
Pd	0.3781	0.8695	-2.3084
C	2.0731	-1.5630	-2.8359
C	2.2444	-2.9176	-2.4591
C	1.3261	-3.1936	-1.5270
C	0.5724	-2.0001	-1.2702
C	-0.4917	-1.8658	-0.3662
C	-1.3014	-0.7365	-0.3123
C	-2.4907	-0.5828	0.4918
C	-2.9612	0.6390	0.3009
C	-2.0650	1.3088	-0.5929
C	-2.1744	2.6306	-0.9500
C	-1.3179	3.3377	-1.8017
C	-1.4435	4.6610	-2.1509
C	-0.4905	4.9668	-3.0364
C	0.2527	3.7659	-3.2619
C	1.2836	3.6077	-4.1821
C	1.9876	2.4575	-4.3929
C	3.0346	2.2666	-5.3396
H	3.6249	7.3448	-5.0886
C	2.7035	0.3854	-4.2016
C	2.8283	-0.9155	-3.8009
H	2.2694	9.1127	-9.2012
C	-0.7353	-3.0160	0.5564
C	0.3003	-3.7978	1.1772
H	2.9907	9.4140	-5.7774
H	3.0470	10.2345	-7.1126
C	-0.2907	-4.8958	1.8084
C	-1.6918	-4.8063	1.6060
C	-1.9696	-3.6829	0.8567
H	4.4164	7.2762	-8.3445
H	4.5763	8.8352	-8.2919
C	-0.3976	-1.7316	3.8940
C	-0.1742	-3.0668	4.4571
H	4.8030	7.9803	-6.9971
C	-1.6273	-3.2846	4.5185
C	-1.8423	-1.9524	3.9699
C	0.4635	-0.5858	3.6216
C	0.2346	0.2765	2.5630
C	1.0691	1.3924	2.3445
C	2.0928	1.6042	3.1760
C	2.3281	0.8090	4.2336
C	1.5187	-0.3069	4.4768
C	1.0212	-3.8127	4.8967
C	2.2532	-3.5695	4.3196
C	3.3701	-4.2558	4.7465
C	3.2877	-5.1494	5.7508
C	2.0549	-5.4194	6.3353
C	0.9191	-4.7451	5.9089
C	-2.4837	-4.2558	5.1708
C	-2.2670	-5.6551	5.0634
C	-3.0602	-6.5487	5.7088
C	-4.1182	-6.1295	6.4601
C	-3.5790	-3.8560	5.9257
C	-3.0059	-1.0841	3.8219
C	-4.2564	-1.5898	3.4406
C	-5.3323	-0.7350	3.3105
C	-5.2056	0.5927	3.5819
C	-4.0045	1.0835	3.9680
C	-2.9168	0.2496	4.0757
C	1.6626	4.8117	-5.0195
C	1.0709	5.0354	-6.2370
C	1.4267	6.1140	-7.0122
C	2.3776	7.0166	-6.6322
N	1.0387	-1.0140	-2.1068
N	-1.0691	0.4450	-0.9866
N	-0.2574	2.7977	-2.4777
N	1.7792	1.2685	-3.7178
C	2.8100	8.1997	-7.4532
H	1.9915	-6.0549	7.0117
C	2.6115	9.5125	-6.6554
C	4.2881	8.0594	-7.8037
H	-4.6596	-6.7516	6.8910
H	-5.0933	-4.5168	7.1020
H	3.3496	2.9036	-5.9388
H	4.1782	0.6524	-5.7075
H	4.1902	-4.1006	4.3362
H	1.0872	8.3145	-8.5498
H	2.2292	7.5492	-9.3023
H	1.6733	9.7019	-6.5777
H	3.0668	5.5785	-3.8074
C	3.4839	1.0328	-5.2204
C	-4.3773	-4.8018	6.5793
C	2.0271	8.3041	-8.7448
*