! UKS B3LYP ma-def2-SVP OPT NumFreq
%basis

end 

%scf
  maxiter 200
end

%pal 
	nprocs 16
end
* xyz 0 1
H	4.7573	-6.6046	-0.4508
Zn	-0.4130	-0.8023	0.8297
H	-2.7101	2.3091	4.2583
H	-0.3874	2.1669	5.0844
N	-0.9082	0.3160	2.5037
N	-2.4299	-0.9787	0.4182
H	-4.3075	3.0555	1.3874
N	-0.0801	-2.4425	-0.3987
N	1.4472	-1.1400	1.6850
N	0.0984	0.6880	-0.6518
N	1.2450	3.3784	-3.6698
N	3.1294	6.4155	-7.2820
H	-5.0012	-5.9293	-2.9433
O	3.1011	4.3224	-2.7734
H	-3.0626	-1.8539	-3.8631
H	-4.3911	-2.9249	-5.4596
H	-3.5789	-4.9341	-1.4265
H	1.7104	-4.4295	-2.1695
H	-0.6303	-4.3394	-2.9403
H	4.6714	-1.9700	-0.7959
H	6.6043	-3.1500	-1.3532
H	6.6428	-5.4602	-1.1739
H	2.8243	-5.4365	0.0955
H	3.8693	-0.7356	3.7547
H	4.4037	-2.3349	1.9540
H	3.3022	2.1267	3.6860
H	2.5216	4.7970	-8.2217
H	4.3867	3.1337	5.4656
H	3.7981	2.6313	7.6306
H	2.1420	1.0770	8.0446
H	1.0631	0.0250	6.2833
H	-1.5940	0.6861	-1.6519
H	-0.9986	2.1788	-3.3145
H	2.6538	2.4536	-1.5901
H	1.9240	0.9491	0.0111
H	-6.1648	4.1928	2.1824
H	0.7129	3.4061	-4.3705
H	-7.5317	3.2166	3.7575
H	1.9002	3.5625	-6.3607
H	-7.0855	1.0841	4.4898
H	-5.1695	-0.0224	3.7763
H	3.6581	7.7943	-5.9824
H	-5.0147	-1.7284	-1.3413
H	3.2491	6.5906	-4.0431
H	-5.5219	-0.0745	0.4214
H	-5.2553	-5.0313	-5.0471
C	-2.1260	0.9062	2.7543
C	-2.0153	1.7753	3.8917
C	-0.7534	1.6980	4.3426
C	-0.0553	0.7647	3.4825
C	-3.3122	0.6700	2.0338
C	-3.4444	-0.2067	0.9587
C	-2.9948	-1.7023	-0.6120
C	-4.3979	-1.3715	-0.7120
C	-2.3215	-2.6188	-1.4355
C	-3.1450	-3.3156	-2.4740
C	-3.4207	-2.7140	-3.6742
C	-4.2205	-3.3514	-4.6283
C	-3.7370	-4.4982	-2.2545
C	-0.9624	-2.9472	-1.3412
C	1.1253	-3.0287	-0.6502
C	1.0123	-3.9096	-1.7887
C	-0.2609	-3.8603	-2.2071
C	2.3047	-2.8289	0.0978
C	3.5349	-3.5836	-0.2950
C	4.6793	-2.9178	-0.7262
C	5.8327	-3.6191	-1.0554
C	5.8542	-4.9815	-0.9509
C	4.7403	-5.6582	-0.5234
C	3.5914	-4.9590	-0.1991
C	2.4188	-1.9719	1.2104
C	1.9601	-0.5351	2.8146
C	-4.5414	1.4035	2.5062
C	3.2954	-0.9974	3.0447
C	-4.8599	2.6467	2.0436
C	3.5824	-1.8681	2.0658
C	-5.9682	3.3232	2.5071
C	1.2845	0.3809	3.6445
C	-6.7748	2.7474	3.4261
C	2.0381	0.9853	4.7852
C	-6.5003	1.5035	3.8712
C	-5.3706	0.8391	3.4307
C	3.0491	1.9054	4.5747
C	3.6953	2.5043	5.6322
C	3.3553	2.2049	6.9062
C	2.3792	1.2926	7.1499
C	1.7319	0.6747	6.1004
C	-4.6747	-0.4671	0.2461
C	-0.7196	1.0581	-1.6353
C	-0.3761	1.9509	-2.6351
C	0.8824	2.5017	-2.6263
C	1.7681	2.1113	-1.6215
C	-4.7571	-4.5740	-4.3813
C	1.3184	1.2107	-0.6729
C	-4.5651	-5.1166	-3.1726
C	2.3329	4.1790	-3.6962
C	2.5272	4.9444	-4.9961
C	2.2922	4.4217	-6.2565
C	2.6391	5.1801	-7.3601
C	3.3225	6.9088	-6.0592
C	3.0627	6.2084	-4.8936
*