! UKS B3LYP ma-def2-SVP OPT NumFreq
%basis

end 

%scf
  maxiter 200
end

%pal 
	nprocs 16
end
* xyz 0 1
H	3.2511	0.5159	-3.6188
C	2.2401	1.6772	-1.3046
C	-2.2401	-1.6772	1.3046
H	1.1741	-1.1010	-8.6599
C	2.4844	3.0055	-1.8380
C	-2.4844	-3.0055	1.8380
C	1.3010	3.6563	-1.8404
H	2.1157	0.9354	-9.1055
C	-1.3010	-3.6563	1.8404
C	0.3092	2.7522	-1.2993
C	-0.3092	-2.7522	1.2993
C	-1.0365	3.0718	-1.0961
C	1.0365	-3.0718	1.0961
C	-2.0074	2.2606	-0.4713
C	2.0074	-2.2606	0.4713
C	-3.3766	2.6461	-0.2350
C	3.3766	-2.6461	0.2350
C	-3.9871	1.6086	0.3817
C	3.9871	-1.6086	-0.3817
C	-2.9949	0.5675	0.5365
C	2.9949	-0.5675	-0.5365
C	3.2200	0.6898	-1.1247
C	-3.2200	-0.6898	1.1247
C	4.6239	1.0532	-1.4998
C	-4.6239	-1.0532	1.4998
C	5.5458	1.2795	-0.4780
C	-5.5458	-1.2795	0.4780
C	6.3499	1.6629	-3.0921
C	-6.3499	-1.6629	3.0921
C	5.0453	1.2235	-2.8276
C	-5.0453	-1.2235	2.8276
C	-1.4822	4.4268	-1.5649
C	1.4822	-4.4268	1.5649
C	-1.9314	4.6210	-2.8654
C	1.9314	-4.6210	2.8654
C	-2.3281	5.8888	-3.3018
C	2.3281	-5.8888	3.3018
C	-2.2787	6.9519	-2.4237
C	2.2787	-6.9519	2.4237
C	-1.8232	6.7868	-1.1354
C	1.8232	-6.7868	1.1354
C	-1.4212	5.5191	-0.6969
C	1.4212	-5.5191	0.6969
C	-1.2783	5.9163	1.7540
C	1.2783	-5.9163	-1.7540
C	-0.5049	5.5161	2.9673
C	0.5049	-5.5161	-2.9673
C	0.8108	5.0120	2.9051
C	-0.8108	-5.0120	-2.9051
C	1.4639	4.6735	4.0644
C	-1.4639	-4.6735	-4.0644
C	0.8388	4.7995	5.2979
C	-0.8388	-4.7995	-5.2979
C	-0.4702	5.2653	5.3848
C	0.4702	-5.2653	-5.3848
C	-1.1100	5.6493	4.2101
C	1.1100	-5.6493	-4.2101
C	-1.2088	5.2536	6.7006
C	1.2088	-5.2536	-6.7006
C	-2.1438	4.0078	6.8319
C	2.1438	-4.0078	-6.8319
C	-3.2898	4.1716	5.8306
C	3.2898	-4.1716	-5.8306
C	-5.1972	5.4822	5.2948
C	5.1972	-5.4822	-5.2948
C	-5.4951	6.8307	5.2986
C	5.4951	-6.8307	-5.2986
C	-2.6794	3.9176	8.2529
C	2.6794	-3.9176	-8.2529
C	-4.3490	2.8963	9.5944
C	4.3490	-2.8963	-9.5944
C	-5.4350	1.9106	9.3315
C	5.4350	-1.9106	-9.3315
C	-1.3304	2.7123	6.5372
C	1.3304	-2.7123	-6.5372
C	-1.9728	1.3779	6.8298
C	1.9728	-1.3779	-6.8298
C	-1.7324	0.7105	8.0278
C	1.7324	-0.7105	-8.0278
C	-2.2987	-0.5107	8.2988
C	2.2987	0.5107	-8.2988
C	-3.1416	-1.1126	7.3810
C	3.1416	1.1126	-7.3810
C	-6.8441	-1.7011	0.7412
C	-3.3740	-0.4843	6.1499
O	-2.1069	4.3375	9.2271
C	3.3740	0.4843	-6.1499
C	-7.2301	-1.9043	2.0539
C	-2.7929	0.7416	5.8890
C	2.7929	-0.7416	-5.8890
C	-4.3143	-1.1631	5.2063
C	4.3143	1.1631	-5.2063
C	-0.4207	1.1310	3.0892
C	0.4207	-1.1310	-3.0892
C	0.0574	-0.0195	4.0032
C	-0.0574	0.0195	-4.0032
C	1.4933	-0.2368	3.5553
C	-1.4933	0.2368	-3.5553
C	1.7845	0.9339	2.6381
C	-1.7845	-0.9339	-2.6381
N	0.9053	1.5530	-0.9885
N	-0.9053	-1.5530	0.9885
N	-1.8020	0.9995	0.0097
N	1.8020	-0.9995	-0.0097
N	-0.8868	5.3085	0.5978
N	0.8868	-5.3085	-0.5978
N	-4.1571	-0.8947	3.8770
N	4.1571	0.8947	-3.8770
O	-2.2012	6.7227	1.8034
O	2.2012	-6.7227	-1.8034
H	7.4452	1.8435	-0.0453
O	-5.1838	-1.9129	5.6389
H	8.0890	2.2063	-2.2396
O	5.1838	1.9129	-5.6389
O	-3.4008	3.5420	4.8115
O	3.4008	-3.5420	-4.8115
O	-4.0911	5.1716	6.1883
O	4.0911	-5.1716	-6.1883
O	-3.8204	3.2385	8.2822
O	3.8204	-3.2385	-8.2822
O	0.5271	1.2084	2.0104
O	-0.5271	-1.2084	-2.0104
O	2.1069	-4.3375	-9.2271
Zn	-0.0000	-0.0000	-0.0000
H	3.3018	3.3451	-2.1222
H	-3.3018	-3.3451	2.1222
H	1.1514	4.5258	-2.1362
H	-1.1514	-4.5258	2.1362
H	-3.7680	3.4583	-0.4632
H	3.7680	-3.4583	0.4632
H	-4.8753	1.5708	0.6539
H	4.8753	-1.5708	-0.6539
H	5.2840	1.1451	0.4039
H	-5.2840	-1.1451	-0.4039
H	-4.7017	3.6827	10.0401
H	-3.6585	2.5041	10.1526
H	6.6251	1.7931	-3.9709
H	-6.6251	-1.7931	3.9709
H	-1.9688	3.9008	-3.4518
H	1.9688	-3.9008	3.4518
H	-2.6220	6.0149	-4.1745
H	2.6220	-6.0149	4.1745
H	-2.5579	7.7933	-2.7073
H	2.5579	-7.7933	2.7073
H	-1.7832	7.5144	-0.5580
H	1.7832	-7.5144	0.5580
H	1.2342	4.9096	2.0827
H	-1.1741	1.1010	8.6599
H	-1.2342	-4.9096	-2.0827
H	2.3375	4.3559	4.0220
H	-2.1157	-0.9354	9.1055
H	-2.3375	-4.3559	-4.0220
H	1.2983	4.5699	6.0735
H	-1.2983	-4.5699	-6.0735
H	-1.9675	6.0065	4.2589
H	1.9675	-6.0065	-4.2589
H	-1.7404	6.0610	6.7759
H	1.7404	-6.0610	-6.7759
H	-0.5677	5.2494	7.4273
H	0.5677	-5.2494	-7.4273
H	-4.9661	5.2074	4.3931
H	4.9661	-5.2074	-4.3931
H	-5.9799	4.9809	5.5690
H	5.9799	-4.9809	-5.5690
H	-6.2324	6.9985	4.7079
H	6.2324	-6.9985	-4.7079
H	-4.7297	7.3298	5.0046
H	4.7297	-7.3298	-5.0046
H	-5.7301	7.1033	6.1882
H	5.7301	-7.1033	-6.1882
H	-5.8317	1.6421	10.1631
H	5.8317	-1.6421	-10.1631
H	-5.0676	1.1409	8.8897
H	5.0676	-1.1409	-8.8897
H	-6.1028	2.3132	8.7720
H	6.1028	-2.3132	-8.7720
H	-1.0886	2.7243	5.5981
H	1.0886	-2.7243	-5.5981
H	-0.5049	2.7600	7.0451
C	6.8441	1.7011	-0.7412
H	0.5049	-2.7600	-7.0451
C	7.2301	1.9043	-2.0539
H	-3.5503	-1.9253	7.5804
H	3.5503	1.9253	-7.5804
H	-2.9492	1.1535	5.0715
H	2.9492	-1.1535	-5.0715
H	-1.3090	0.9459	2.7467
H	1.3090	-0.9459	-2.7467
H	-7.4452	-1.8435	0.0453
H	-0.4435	1.9672	3.5797
H	0.4435	-1.9672	-3.5797
H	-8.0890	-2.2063	2.2396
H	0.0174	0.2349	4.9367
H	-0.0174	-0.2349	-4.9367
H	-0.4755	-0.8179	3.8686
H	0.4755	0.8179	-3.8686
H	2.0970	-0.2370	4.3149
H	-2.0970	0.2370	-4.3149
H	1.5841	-1.0780	3.0811
H	-1.5841	1.0780	-3.0811
H	2.0944	1.7009	3.1426
H	-2.0944	-1.7009	-3.1426
H	2.4564	0.6984	1.9789
H	4.7017	-3.6827	-10.0401
H	-2.4564	-0.6984	-1.9789
H	3.6585	-2.5041	-10.1526
H	-0.4248	4.4923	0.6929
H	0.4248	-4.4923	-0.6929
H	-3.2511	-0.5159	3.6188
*