! UKS B3LYP ma-def2-SVP OPT NumFreq
%basis

end 

%scf
  maxiter 200
end

%pal 
	nprocs 16
end
* xyz 0 1
H	-4.7344	-4.9222	3.7757
H	-4.8004	-7.8218	3.0015
H	-0.9172	-5.3492	1.1382
Zn	0.0000	0.0000	0.0000
H	-2.5479	-4.4073	-0.7433
H	2.5479	4.4073	0.7433
H	-1.9449	-7.2440	2.0160
H	0.4388	0.5881	-5.1034
H	-0.4388	-0.5881	5.1034
H	-2.1015	-3.5664	-3.0378
H	2.1015	3.5664	3.0378
H	1.5344	2.6135	-4.1845
H	-1.5344	-2.6135	4.1845
H	-3.7464	-3.0330	2.8627
H	3.7464	3.0330	-2.8627
H	-2.7357	-0.8252	-4.7793
H	2.7357	0.8252	4.7793
H	-3.1613	-1.6623	-6.9179
H	-4.4437	-7.3023	4.4735
H	3.1613	1.6623	6.9179
H	0.8087	-2.7589	-4.7405
H	-3.4029	-8.2182	3.6733
H	-0.8087	2.7589	4.7405
H	0.3727	-3.6016	-6.8626
H	0.9172	5.3492	-1.1382
H	-0.3727	3.6016	6.8626
H	1.9449	7.2440	-2.0160
H	-1.9204	-4.1887	-8.4603
H	1.9204	4.1887	8.4603
H	-0.9154	-3.1024	-9.0695
H	0.9154	3.1024	9.0695
H	-2.4677	-2.7514	-8.9020
H	2.4677	2.7514	8.9020
C	-1.5696	-2.7706	1.3469
C	1.5696	2.7706	-1.3469
C	-1.4915	-2.6714	-0.0542
C	1.4915	2.6714	0.0542
C	-2.2225	-3.9896	1.9103
C	2.2225	3.9896	-1.9103
C	-1.0882	-1.9366	-2.0898
H	4.4437	7.3023	-4.4735
C	1.0882	1.9366	2.0898
C	1.0827	1.8087	-2.2415
H	3.4029	8.2182	-3.6733
C	-1.0827	-1.8087	2.2415
C	-0.6261	-1.1706	-3.1701
C	0.6261	1.1706	3.1701
C	-2.0776	-3.6136	-0.9729
C	2.0776	3.6136	0.9729
C	-0.9146	-1.7034	-4.5421
C	-1.6993	-5.2565	1.6701
C	0.9146	1.7034	4.5421
C	0.5426	0.8057	-4.1844
C	-2.3082	-6.3864	2.2003
C	-0.5426	-0.8057	4.1844
C	-1.8319	-3.1571	-2.2237
C	1.8319	3.1571	2.2237
C	0.0871	0.0230	-3.0650
C	-3.9596	-5.0167	3.2340
C	-0.0871	-0.0230	3.0650
C	1.1437	1.9068	-3.6837
C	-1.1437	-1.9068	3.6837
H	4.7344	4.9222	-3.7757
C	-3.3674	-3.8878	2.6954
C	3.3674	3.8878	-2.6954
C	-3.4453	-6.2799	2.9988
C	-1.4400	-2.7033	-7.1191
C	1.4400	2.7033	7.1191
C	-2.0959	-1.3864	-5.2006
C	-4.0785	-7.5134	3.5882
C	2.0959	1.3864	5.2006
C	-2.3488	-1.8874	-6.4812
C	2.3488	1.8874	6.4812
C	-0.0038	-2.5310	-5.1789
C	1.6993	5.2565	-1.6701
C	0.0038	2.5310	5.1789
C	2.3082	6.3864	-2.2003
C	-0.2614	-3.0302	-6.4463
C	0.2614	3.0302	6.4463
H	4.8004	7.8218	-3.0015
C	-1.7099	-3.2330	-8.5100
C	3.9596	5.0167	-3.2340
C	1.7099	3.2330	8.5100
N	-0.8928	-1.6496	-0.7571
N	0.8928	1.6496	0.7571
N	0.4422	0.6428	-1.8892
N	-0.4422	-0.6428	1.8892
C	3.4453	6.2799	-2.9988
C	4.0785	7.5134	-3.5882
*