! UKS B3LYP ma-def2-SVP OPT NumFreq
%basis
NewGTO I "ma-def2-TZVP" end
end 

%scf
  maxiter 200
end

%pal 
	nprocs 16
end
* xyz 0 1
Co	-0.0029	0.2895	-0.0832
H	5.1679	0.2030	2.3966
H	-5.4990	1.9350	1.0188
H	-5.0742	3.1597	1.9607
H	-5.5856	3.9588	-0.2023
H	5.3813	-2.1364	2.6132
H	-3.9112	3.2815	3.7203
H	-4.0381	4.2205	0.1065
H	-4.4706	2.9998	-0.8331
H	-2.5502	2.8540	4.4447
H	-2.5521	5.1914	4.0681
H	-1.3757	4.5241	3.2162
H	5.2794	1.6074	-2.2664
H	-2.7386	4.9517	2.4970
H	-1.8351	0.0172	4.8390
H	5.1391	3.9008	-2.6481
H	-2.1484	0.3608	7.1293
H	-1.0143	2.0869	8.2223
H	0.4448	3.4593	7.0245
H	0.7408	3.1437	4.7288
H	1.5886	0.5506	5.4007
H	2.9957	-0.1726	5.1390
H	1.4117	-1.7269	5.8211
H	0.4717	-1.3273	4.5885
H	1.8750	-2.0485	4.3234
H	4.6181	-0.2625	3.8277
H	3.8050	-2.2683	2.8623
H	4.3548	-1.8028	1.4327
H	4.7393	1.8811	-3.7452
H	3.5782	3.7670	-2.9756
H	4.1107	3.4913	-1.4914
H	3.6378	0.7464	-5.1112
H	2.3017	-0.0947	-5.3701
H	2.1557	1.9990	-6.4514
H	1.0311	1.9051	-5.3172
H	2.3652	2.7481	-5.0532
H	2.1268	-2.6818	-3.7821
H	2.5286	-3.8725	-5.7600
H	6.9576	2.9639	1.6216
H	1.2368	-3.4550	-7.6448
H	8.4647	1.4336	0.7044
H	-0.3972	-1.7948	-7.6047
H	7.6650	-0.3544	-0.5161
H	-0.8086	-0.6081	-5.6330
H	-0.9431	-3.3591	-4.1059
H	-2.0831	-4.0683	-3.2409
H	5.3525	-0.6121	-0.8084
H	-2.7617	-3.9344	-5.5036
H	-3.7517	-3.0554	-4.6066
H	-2.6117	-2.3422	-5.4716
H	-4.9531	-2.1484	-1.6859
H	-4.2169	-3.3231	-2.4907
H	-4.7147	-4.0443	-0.2904
H	-3.1288	-4.0083	-0.4938
H	-3.8593	-2.8316	0.3092
H	-4.8954	0.7743	-2.3956
H	-7.2118	0.6365	-2.6548
H	-8.5113	-0.1986	-0.9274
H	4.6547	2.7941	1.2306
H	-7.5425	-0.8978	1.0677
H	-5.2030	-0.7360	1.3427
C	-2.7988	1.0129	0.5818
C	-2.6496	2.2257	2.4958
C	-3.4918	1.9478	1.4571
C	-1.4101	1.5117	2.2364
C	-0.3257	1.2989	3.1011
C	0.9013	0.8345	2.6355
C	2.0591	0.4087	3.4019
C	3.1059	0.3168	2.5378
C	2.5997	0.6585	1.2297
C	3.3094	0.8642	0.0420
C	2.6929	0.8514	-1.2022
C	3.3027	1.1032	-2.4994
C	2.4613	0.5766	-3.4288
C	1.3285	0.0076	-2.7257
C	0.3350	-0.8363	-3.2225
C	-0.8430	-1.1094	-2.5223
C	-1.8903	-2.0697	-2.8248
C	-2.9368	-1.7810	-1.9760
C	-2.5404	-0.6421	-1.1943
C	-3.3428	0.1488	-0.3527
C	-4.8051	2.6243	1.1731
C	-2.9312	3.2024	3.6006
C	-4.7167	3.5313	-0.0479
C	-2.3464	4.5921	3.3195
C	-0.5229	1.5525	4.5560
C	-1.3762	0.7232	5.2792
C	-1.5602	0.9242	6.6418
C	-0.8855	1.9470	7.2902
C	-0.0262	2.7641	6.5789
C	0.1543	2.5743	5.2143
C	2.0634	-0.0927	4.8168
C	1.4002	-1.4092	4.8936
C	4.4528	-0.3085	2.8526
C	4.5028	-1.7568	2.3994
C	4.7950	1.0021	0.1276
C	4.5124	1.9570	-2.7848
C	5.2583	2.1448	0.8905
C	4.3183	3.4054	-2.4459
C	6.6251	2.2447	1.0990
C	2.6670	0.7064	-4.9197
C	7.5305	1.3237	0.5668
C	1.9942	1.9510	-5.4851
C	7.0653	0.2809	-0.1437
C	0.5995	-1.5489	-4.5183
C	5.6697	0.1430	-0.3267
C	1.6059	-2.5100	-4.5563
C	1.8423	-3.2132	-5.7310
C	1.0868	-2.9575	-6.8493
C	0.1084	-1.9826	-6.8228
C	-0.1358	-1.2794	-5.6518
C	-1.8620	-3.2512	-3.7553
C	-2.8347	-3.1353	-4.9414
C	-4.1265	-2.6898	-1.7362
C	-3.9400	-3.4629	-0.4375
C	-4.8216	0.0491	-0.4967
C	-5.4298	0.4427	-1.6841
C	-6.8043	0.3548	-1.8430
C	-7.5694	-0.1387	-0.8181
C	-7.0004	-0.5522	0.3675
C	-5.6067	-0.4543	0.5298
I	0.1512	-2.0795	0.7430
N	1.2260	0.8688	1.2962
N	-1.4674	0.8994	0.9988
N	1.4236	0.3100	-1.3779
N	-1.2232	-0.3065	-1.4515
*