! UKS B3LYP ma-def2-SVP OPT NumFreq
%basis
NewGTO Br "ma-def2-TZVP" end
end 

%scf
  maxiter 200
end

%pal 
	nprocs 16
end
* xyz 0 1
Co	-0.0559	-0.1247	-0.0776
H	-4.3122	4.6310	-0.3754
H	-2.7411	4.4696	-0.6292
H	-3.5242	3.3905	0.2553
H	3.5322	-1.0523	-5.0683
H	2.4430	0.0922	-5.3368
H	1.7412	-1.9351	-6.3382
H	0.7090	-1.5243	-5.1847
H	1.7966	-2.6667	-4.9160
H	-0.2109	1.5104	-7.6770
H	-0.7922	0.6950	-5.5763
H	-5.1052	-0.2410	-2.4102
H	-7.3960	0.1821	-2.5381
C	4.4375	-2.0352	-2.7520
H	-8.4885	1.2264	-0.7555
C	5.6635	-1.2709	-3.2827
H	-7.3113	1.8619	1.1311
H	-2.9267	-2.5543	4.3891
H	-5.0514	1.3490	1.3159
H	-5.6734	-1.3813	0.8719
H	-4.2080	-3.0244	3.5560
H	-2.8616	-4.8779	4.0470
H	-5.3917	-2.5829	1.8906
H	-1.6193	-4.1953	3.3072
H	-5.9437	-3.4433	-0.2354
H	-4.4425	-3.8541	0.1337
H	-2.8957	-4.6592	2.4628
H	-4.7144	-2.6504	-0.8864
H	-2.0621	0.1923	4.8017
H	-2.4903	-0.2205	7.0520
H	-1.4109	-1.9678	8.1682
H	-0.0530	4.1303	-2.1809
H	0.0773	-3.3350	7.0055
H	0.4762	-2.9814	4.7296
H	-0.9517	5.3790	-2.6244
H	0.9972	0.1800	5.2171
H	0.2450	4.8803	-3.5641
H	2.3665	0.9464	4.9318
H	2.6172	-0.4494	6.8148
H	3.5892	-0.9685	5.6523
H	2.2134	-1.7307	5.9460
C	-1.7023	2.3606	-2.8367
C	-2.7818	2.1705	-2.0206
C	4.3544	0.0758	2.9820
C	6.1503	-3.2430	0.7867
C	7.2184	-2.4337	0.4846
C	4.6133	-1.4528	0.2610
C	4.8608	-2.7669	0.6932
C	4.4407	1.4920	2.7895
C	2.6432	-0.8602	-1.1321
C	3.2554	-1.1463	-2.4345
C	2.4527	-0.5618	-3.3791
C	6.9986	-1.1218	0.0603
C	1.3603	0.0717	-2.6869
C	5.6895	-0.6435	-0.0453
C	0.4273	0.9791	-3.2107
C	-0.7417	1.3245	-2.5297
C	-2.8795	-1.9167	2.4200
C	-1.5949	-1.2750	2.1906
C	1.8178	2.4627	-4.7004
C	-2.5017	0.9811	-1.2518
C	-0.5203	-1.1258	3.0904
C	2.1239	2.9409	-5.9620
C	0.7432	-0.7396	2.6680
C	-3.3712	0.2311	-0.4294
C	1.3830	2.5854	-7.0700
C	-2.9055	-0.6824	0.5291
C	1.8975	-0.4147	3.4810
C	-3.6887	-1.5632	1.3686
C	2.9770	-0.4208	2.6469
C	2.4690	-0.7151	1.2948
C	-1.4695	3.5969	-3.6995
C	-3.8743	3.1617	-1.7823
C	-3.5861	3.9873	-0.5189
H	4.1623	-2.7035	-3.4287
C	3.1952	-0.9767	0.1327
H	4.6980	-2.5257	-1.9324
H	6.3896	-1.9045	-3.4622
H	5.9565	-0.6190	-2.6132
C	2.6074	-0.7641	-4.8684
H	5.4241	-0.8050	-4.1115
C	1.6256	-1.8166	-5.3714
C	0.7302	1.5819	-4.5497
C	0.3068	1.7516	-6.9180
C	-0.0318	1.2591	-5.6695
C	-4.8300	0.5029	-0.5188
C	-5.5513	0.1657	-1.6791
C	-3.2246	-2.9181	3.5181
C	-6.9092	0.4273	-1.7609
C	-2.5945	-4.2832	3.3154
C	-7.5572	1.0506	-0.6988
C	-0.7694	-1.3792	4.5352
C	-6.8668	1.4123	0.4211
C	-1.6404	-0.5373	5.2410
C	-5.5187	1.1221	0.5209
C	-5.0531	-2.1231	1.0825
C	-1.8814	-0.7764	6.5798
C	-5.0368	-3.1061	-0.0793
C	-0.4584	4.5942	-2.9431
C	-1.2432	-1.8166	7.2462
C	-0.3656	-2.6279	6.5529
C	-0.1263	-2.4174	5.1993
C	1.9301	0.0574	4.9111
C	2.6530	-0.8561	5.9243
H	4.1330	-3.3309	0.9239
N	1.1014	-0.7927	1.3177
H	6.3017	-4.1381	1.0623
H	8.1041	-2.7669	0.5645
Br	0.1300	2.0550	0.7339
N	1.4042	-0.2369	-1.3334
N	-1.2171	0.5397	-1.4841
N	-1.5932	-0.6599	0.9487
H	2.3339	2.7243	-3.9471
H	5.3444	1.7965	3.0136
H	2.8614	3.5295	-6.0668
H	3.7911	1.9396	3.3696
H	7.7345	-0.5598	-0.1551
H	1.6191	2.9123	-7.9303
H	5.5381	0.2495	-0.3329
H	4.2470	1.7066	1.8536
H	-4.7372	2.6855	-1.6784
H	-3.9492	3.7666	-2.5636
*