! UKS B3LYP ma-def2-SVP OPT NumFreq
%basis

end 

%scf
  maxiter 200
end

%pal 
	nprocs 16
end
* xyz 0 1
H	-1.9299	2.2419	4.2370
H	-3.4506	3.4370	5.5100
H	-5.3693	4.2006	4.5707
C	-3.6265	3.2692	4.6129
C	-4.7678	3.7143	4.0562
H	5.5691	-1.3935	-5.9934
H	7.0798	-2.8591	-5.1480
H	7.0013	-3.4355	-2.9117
H	5.3686	-2.5554	-1.5350
Ni	0.4726	0.3927	-0.5337
H	-4.0649	-3.6832	1.5207
H	-4.6983	-5.6749	2.6480
H	-3.5055	-6.1497	4.6474
H	-2.0795	-4.8234	5.5949
H	-1.2288	-3.0200	4.2600
H	-2.7666	-0.6424	5.0198
H	-5.1463	-0.3377	1.8606
H	3.9265	-0.4940	-4.6508
H	3.1212	-3.6341	-2.2188
H	1.2456	-4.5940	-0.9576
H	0.3693	-4.7606	2.1662
H	-0.4614	-6.8871	2.3994
H	-2.1141	-7.6302	1.0259
H	-2.8200	-6.3153	-0.7388
H	-2.0341	-4.1568	-0.9348
H	0.2512	-0.9004	-3.3446
H	-1.2075	-1.2040	-5.0714
H	-3.3254	-0.2544	-4.9512
H	-3.8985	0.8688	-3.0240
C	-1.0202	-1.7519	1.1321
C	-2.1043	-1.9322	2.1050
H	-6.9681	-0.1082	3.3038
C	-2.5598	-3.1729	2.7972
C	-3.6256	-3.9468	2.2962
C	-4.0284	-5.1122	2.9634
C	-3.2943	-5.3599	4.2009
C	-2.4125	-4.6419	4.7457
C	5.5293	-1.6298	-5.0953
C	-1.9554	-3.5177	3.9603
C	6.4254	-2.4949	-4.5958
C	-2.5942	-0.7006	2.3877
C	6.3759	-2.8419	-3.2567
C	-3.7513	-0.4781	3.2934
C	5.4011	-2.3100	-2.4319
C	-3.6131	-0.5203	4.6530
C	-5.9320	-0.2292	4.9806
C	-6.1116	-0.2098	3.6523
C	-5.0136	-0.3422	2.7814
C	-1.7962	0.2684	1.6269
O	6.3526	0.6599	-2.3685
C	3.2861	0.5572	-1.9505
C	3.3831	-0.8422	-2.0786
C	4.4722	-1.4140	-2.9381
C	4.5458	-1.0864	-4.2877
C	2.4788	-1.7450	-1.4942
C	2.5057	-3.1650	-1.7008
C	1.4761	-3.6946	-1.0082
H	-5.8545	3.7532	2.3926
C	0.8013	-2.6011	-0.3589
H	-4.3180	2.6117	1.0911
C	-0.3140	-2.7780	0.4871
H	-1.8108	4.4700	1.5981
C	-0.7936	-4.1922	0.6394
H	-0.0312	5.4504	0.2526
C	-0.3073	-5.0517	1.5975
H	3.0827	5.2849	0.4360
C	-0.7958	-6.3324	1.7334
H	3.8720	7.3794	0.0188
C	-1.7534	-6.7821	0.9036
H	3.4717	8.4010	-1.9609
C	-2.2008	-5.9865	-0.1278
H	2.2286	7.3555	-3.4989
C	-1.7219	-4.6967	-0.2446
H	1.3952	5.2484	-3.1104
H	4.1106	3.5979	-2.3847
C	-0.5944	-0.5180	-3.2822
C	-1.4647	-0.7098	-4.3256
C	-2.7187	-0.1630	-4.2523
C	-3.0432	0.5172	-3.1262
C	-2.1118	0.6862	-2.1403
N	-0.8487	-0.4153	0.8890
N	1.4139	-1.4197	-0.6776
N	-0.8820	0.1760	-2.1975
H	-2.3480	1.1815	-1.3895
H	-4.5781	-0.4027	6.4169
H	-6.6613	-0.1345	5.5478
C	-1.9143	1.6587	1.6557
C	-2.9604	2.3241	2.5160
C	-2.7130	2.5592	3.8486
C	-5.0519	3.4644	2.7616
C	-4.1316	2.7727	1.9875
C	-1.0801	2.5741	0.9669
C	-1.1818	4.0054	1.0955
C	-0.2041	4.5430	0.3570
C	0.5322	3.4644	-0.2438
C	1.6764	3.6207	-1.0218
C	2.1540	5.0247	-1.2916
C	2.8940	5.6890	-0.3806
C	3.3700	6.9423	-0.6311
N	5.5852	1.4349	-2.9064
C	3.1313	7.5518	-1.7920
C	2.4092	6.9343	-2.6885
C	1.9084	5.6650	-2.4562
C	2.4746	2.5786	-1.5183
O	5.9213	2.1689	-3.8330
C	3.7203	2.7830	-2.1699
C	4.2218	1.5605	-2.4086
C	-4.6985	-0.3856	5.4963
N	-0.0280	2.2636	0.1347
N	2.2159	1.2261	-1.4076
*