! UKS B3LYP ma-def2-SVP OPT NumFreq
%basis
NewGTO Br "ma-def2-TZVP" end
end 

%scf
  maxiter 200
end

%pal 
	nprocs 16
end
* xyz 0 1
Ni	-0.0378	-0.3361	0.2972
H	-3.9013	-0.9591	-3.0987
H	-1.2484	-7.8142	1.9098
H	-4.3162	-6.5530	-0.2742
C	1.5640	4.2468	-0.0010
H	-3.2926	-4.4916	-0.5260
H	-4.6287	0.1513	-6.8970
C	-0.8904	3.2427	-1.5022
H	-2.5153	1.0390	-7.0176
C	-0.0010	2.4167	-0.6958
H	-0.2233	-5.7614	1.7109
H	-3.2849	-8.1978	0.9303
H	-5.3494	-0.7940	-4.8936
C	2.1779	-1.9159	5.2772
C	1.4534	5.0828	1.0830
H	-1.0985	0.9500	-5.2177
C	1.6459	1.9426	1.0042
C	1.3797	0.2662	5.8229
C	2.5501	-2.1572	6.5692
C	1.7008	-0.0110	7.1909
H	-1.5999	-4.0793	3.1748
C	2.2932	-1.1818	7.5058
C	2.7727	1.3019	2.8556
H	2.3369	-2.5681	4.6325
C	1.0535	2.8275	0.0815
C	2.1411	4.7007	-1.1853
C	2.7970	2.1926	1.8459
C	-0.9205	-3.5564	-2.0955
N	-0.8691	-2.4359	5.3622
C	-3.6213	-0.5454	-3.8835
C	-1.0612	-3.5463	0.4432
C	-1.4938	-0.0757	-2.7510
C	1.1181	-0.5339	3.4790
O	-0.7883	-3.5190	5.7559
O	-1.1758	-1.5510	5.7234
C	-1.6604	-7.1376	1.4244
C	1.5614	-0.7078	4.8941
C	-3.4877	-6.3935	0.1174
C	-1.6669	-4.9125	0.5498
C	2.5097	6.8009	-0.2000
C	-1.6055	2.4425	-2.2888
C	1.6441	0.4314	2.6132
C	2.6189	5.9735	-1.2760
C	-1.1908	1.0807	-2.0364
C	-2.3408	-0.0154	-3.9664
C	-2.8749	-5.1581	-0.0287
C	-0.8095	-2.8568	1.6298
C	1.9184	6.3829	0.9593
C	-4.0617	0.1182	-6.1594
C	-0.8706	-2.9459	-0.7966
C	-2.8025	0.6397	-6.2288
C	-0.5749	-2.4230	3.7812
Br	-3.0169	3.0447	-3.3726
C	-1.0837	-2.5695	-2.9999
Br	4.1112	1.1498	4.1502
Br	4.2160	3.3839	1.5356
C	-1.0433	-5.9180	1.3017
C	-2.8755	-7.3675	0.8363
Br	-1.1964	5.0771	-1.2954
C	-4.4839	-0.4607	-4.9649
C	-1.0791	-1.3197	-2.2864
C	-1.9498	0.5822	-5.1489
N	-0.2813	1.0908	-0.9710
C	0.1373	-1.4318	3.0125
C	-1.1194	-3.3165	2.9463
Br	-0.6868	-5.3740	-2.5057
Br	-1.1133	-2.8361	-4.8479
N	-0.1043	-1.6530	1.6800
N	-0.8120	-1.5740	-0.9536
N	1.0274	0.7991	1.4327
H	1.0517	1.1008	5.5740
H	2.9621	-2.9545	6.8091
H	1.5035	0.6081	7.8546
H	2.5390	-1.3355	8.3882
H	1.0753	4.7841	1.8792
H	2.1992	4.1304	-1.9193
H	2.8410	7.6671	-0.2562
H	3.0155	6.2737	-2.0623
H	1.8290	6.9747	1.6700
*