! UKS B3LYP ma-def2-SVP OPT NumFreq
%basis
NewGTO Ru "ma-def2-TZVP" end
end 

%scf
  maxiter 200
end

%pal 
	nprocs 16
end
* xyz 0 1
H	-7.1224	-2.4967	1.8819
H	-5.2782	-1.3633	0.9736
H	-2.6366	-3.5152	-2.6428
H	-3.8083	-3.4325	-0.5069
H	-0.0580	-4.4409	-3.2522
C	-0.6414	0.8652	2.8920
H	-0.3482	-5.7941	-5.1313
C	-1.5720	0.6050	3.9710
C	1.3048	-1.3149	0.7260
H	-1.0346	-4.8422	-7.1319
C	3.2370	-2.5492	1.8162
H	-1.2788	-2.5794	-7.3089
C	3.3300	-3.8641	2.3706
H	-1.0336	-1.2040	-5.4530
C	4.6398	-3.9911	2.8547
C	5.3503	-2.8053	2.6038
C	4.4707	-1.8897	1.9626
C	2.1343	-1.4279	4.6543
C	2.3484	-2.6923	5.2755
H	-3.5182	-0.1956	-4.4187
C	3.6462	-2.7125	5.8064
C	4.2616	-1.5005	5.5025
C	3.3350	-0.6978	4.7947
H	7.1224	2.4967	-1.8819
H	5.2782	1.3633	-0.9736
H	2.6366	3.5152	2.6428
N	2.1233	-1.9784	1.2239
H	3.8083	3.4325	0.5069
H	0.0580	4.4409	3.2522
H	0.3482	5.7941	5.1313
H	1.0346	4.8422	7.1319
C	-5.1402	-2.0369	1.6054
H	1.2788	2.5794	7.3089
C	-6.2418	-2.6923	2.1597
H	1.0336	1.2040	5.4530
C	-2.3464	-1.9804	0.0667
C	-3.0499	-2.9404	-0.7482
C	-2.4125	-2.9848	-1.9408
H	3.5182	0.1956	4.4187
C	-1.3018	-2.0651	-1.8788
C	-0.3842	-1.8151	-2.9204
H	1.5880	-1.0164	-4.8031
C	-0.5193	-2.6742	-4.1513
C	-0.8935	-2.1317	-5.3744
Ru	0.0000	0.0000	0.0000
C	-1.0566	-2.9525	-6.4830
N	-0.9326	0.0484	1.8438
C	-0.8855	-4.2997	-6.3890
C	-0.4943	-4.8603	-5.1902
C	-0.3122	-4.0577	-4.0587
C	5.1402	2.0369	-1.6054
C	6.2418	2.6923	-2.1597
Fe	-3.6969	2.4203	-3.7731
C	2.3464	1.9804	-0.0667
C	3.0499	2.9404	0.7482
C	2.4125	2.9848	1.9408
C	0.6414	-0.8652	-2.8920
C	1.3018	2.0651	1.8788
C	0.3842	1.8151	2.9204
C	1.5720	-0.6050	-3.9710
N	-1.2868	-1.4621	-0.6437
C	0.5193	2.6742	4.1513
C	0.8935	2.1317	5.3744
C	1.0566	2.9525	6.4830
H	-2.8017	-3.5696	3.2422
C	0.8855	4.2997	6.3890
H	-4.6358	-4.6325	4.1943
C	0.4943	4.8603	5.1902
H	-6.7752	-4.1020	3.5036
C	0.3122	4.0577	4.0587
H	-4.6859	0.9842	-1.6940
H	-6.2879	2.6258	-2.8678
H	-3.1029	-0.7341	4.0263
H	-4.9991	4.7817	-3.3040
H	-2.6356	4.5397	-2.3861
H	-5.1752	1.2443	-5.7138
H	-4.0445	3.4728	-6.2653
H	-1.7221	3.4345	-5.3231
H	-1.3208	1.1536	-4.1924
N	1.2868	1.4621	0.6437
H	2.8017	3.5696	-3.2422
C	-2.4015	-0.3570	3.5453
H	4.6358	4.6325	-4.1943
C	-2.0162	-0.7260	2.2024
H	6.7752	4.1020	-3.5036
C	-2.6726	-1.6598	1.3926
N	0.9326	-0.0484	-1.8438
C	-3.8534	-2.3616	1.9895
Fe	3.6969	-2.4203	3.7731
C	-6.0427	-3.6624	3.1218
C	-4.7649	-3.9770	3.5243
H	3.1029	0.7341	-4.0263
C	-3.6652	-3.3478	2.9598
C	-1.3048	1.3149	-0.7260
C	-3.2370	2.5492	-1.8162
C	-3.3300	3.8641	-2.3706
C	-4.6398	3.9911	-2.8547
C	-5.3503	2.8053	-2.6038
C	-4.4707	1.8897	-1.9626
C	-2.1343	1.4279	-4.6543
C	-2.3484	2.6923	-5.2755
C	-3.6462	2.7125	-5.8064
H	4.6859	-0.9842	1.6940
C	-4.2616	1.5005	-5.5025
H	6.2879	-2.6258	2.8678
C	-3.3350	0.6978	-4.7947
H	4.9991	-4.7817	3.3040
H	2.6356	-4.5397	2.3861
C	2.4015	0.3570	-3.5453
N	-2.1233	1.9784	-1.2239
H	5.1752	-1.2443	5.7138
C	2.0162	0.7260	-2.2024
H	4.0445	-3.4728	6.2653
C	2.6726	1.6598	-1.3926
H	1.7221	-3.4345	5.3231
C	3.8534	2.3616	-1.9895
H	1.3208	-1.1536	4.1924
C	6.0427	3.6624	-3.1218
C	4.7649	3.9770	-3.5243
C	3.6652	3.3478	-2.9598
H	-1.5880	1.0164	4.8031
*