! UKS B3LYP ma-def2-SVP OPT NumFreq
%basis
NewGTO I "ma-def2-TZVP" end
end 

%scf
  maxiter 200
end

%pal 
	nprocs 16
end
* xyz 0 1
C	-0.7090	3.4075	-2.1969
C	0.0308	2.6939	-1.1673
C	0.7856	3.2369	-0.1271
C	1.4063	2.4179	0.8229
C	2.4268	2.7858	1.8013
C	2.5621	1.7272	2.6458
C	1.5616	0.7441	2.2650
C	0.9689	-0.2051	3.0921
C	-1.3248	-4.6710	0.1325
C	-0.6220	-5.5055	1.0100
C	-1.0502	-6.8068	1.2241
C	-2.1937	-7.2676	0.5697
C	-2.8755	-6.4557	-0.3305
C	-2.4376	-5.1582	-0.5609
C	-0.8074	0.0199	-4.8939
C	-1.9558	-0.6289	-5.3499
C	-2.3104	-0.5675	-6.6919
C	-1.5020	0.1387	-7.5786
C	-0.3362	0.7652	-7.1432
C	0.0072	0.7039	-5.7940
C	1.3552	-0.2679	4.5244
C	1.0225	0.7873	5.3715
C	1.4212	0.7691	6.7104
C	2.1761	-0.3012	7.1759
C	2.4925	-1.3729	6.3433
C	2.0735	-1.3589	5.0212
C	-2.7365	-8.6212	0.8807
C	-1.8489	0.2039	-9.0330
H	2.0781	5.1680	-1.4945
H	2.2455	7.4575	-1.0182
H	-0.2723	6.9824	2.1363
H	-0.3274	4.6785	1.7331
I	-1.5038	-1.7267	5.3364
I	-3.0720	-4.0354	2.9173
I	0.3774	-5.4359	-2.6363
I	0.6739	-2.9279	-5.3278
I	4.1045	1.4712	4.0077
N	-0.1670	-1.3075	1.2548
N	-0.3967	-1.3718	-1.4438
N	0.0289	1.3446	-1.4714
N	0.9959	1.1290	1.0621
F	-3.1633	-9.2557	-0.2202
F	-1.8494	-9.4251	1.4671
F	-3.8208	-8.5599	1.6761
F	-3.1210	-0.0167	-9.2794
F	-1.4844	1.3160	-9.6181
F	-1.1719	-0.7254	-9.7253
I	-2.3326	2.9167	-4.7290
C	0.8699	4.7036	0.0768
C	1.6204	5.5322	-0.7453
C	1.7047	6.8936	-0.4780
C	0.9872	7.4222	0.5925
C	0.2196	6.6104	1.4129
C	0.1757	5.2476	1.1632
C	1.0932	8.8842	0.9098
I	3.5655	4.5126	1.9709
F	2.1689	9.1710	1.6366
F	1.1399	9.6422	-0.1627
C	2.6456	-0.3352	8.5940
I	-1.4536	5.3462	-2.1730
F	2.5128	0.8370	9.2278
F	3.9277	-0.6758	8.6931
F	1.9687	-1.2200	9.3429
F	0.0579	9.3264	1.6486
Ni	0.1215	-0.0514	-0.1536
H	0.1490	-5.1791	1.4600
H	-0.5696	-7.3799	1.8102
H	-3.6403	-6.7886	-0.7863
H	-2.8911	-4.6048	-1.1852
H	-2.4984	-1.1144	-4.7394
H	-3.0950	-1.0022	-7.0014
H	0.2181	1.2299	-7.7586
H	0.7995	1.1294	-5.4872
H	0.5217	1.5223	5.0380
H	1.1795	1.4779	7.2950
H	2.9920	-2.1078	6.6796
H	2.2759	-2.0921	4.4528
C	-0.0345	-1.0489	2.6035
C	-0.9367	-1.8973	3.3519
C	-1.5101	-2.7556	2.4567
C	-0.9440	-2.4454	1.1521
C	-0.9135	-3.2474	0.0019
C	-0.4594	-2.7276	-1.2069
C	-0.1310	-3.4367	-2.4275
C	-0.0127	-2.5046	-3.4150
C	-0.2600	-1.2106	-2.8089
C	-0.4967	0.0084	-3.4414
C	-0.5333	1.2090	-2.7224
C	-1.0396	2.4973	-3.1580
*