! UKS B3LYP ma-def2-SVP OPT NumFreq
%basis
NewGTO Ru "ma-def2-TZVP" end
end 

%scf
  maxiter 200
end

%pal 
	nprocs 16
end
* xyz 0 1
C	4.1642	-0.2619	-1.0396
C	-3.5828	4.5563	0.2356
C	3.8575	-1.5694	-1.0982
C	-4.2357	5.7485	0.5330
C	2.4533	-1.6979	-0.7550
C	3.5828	-4.5563	-0.2356
H	-7.2500	-4.5416	1.3698
C	4.2357	-5.7485	-0.5330
H	-6.4693	-4.2265	-0.7698
C	4.5654	2.8657	-2.0716
C	5.7460	3.5815	-2.3028
C	-4.5654	-2.8657	2.0716
C	-0.5597	0.2790	-1.8678
C	-5.7460	-3.5815	2.3028
C	-1.5499	0.7964	-4.1679
C	-2.2297	0.5766	-6.3264
C	-2.5811	1.8689	-5.8719
C	0.5597	-0.2790	1.8678
C	-2.1888	2.0180	-4.5227
C	1.5499	-0.7964	4.1679
C	-5.0561	0.8282	-3.5264
C	-5.4892	0.5912	-4.8444
C	2.2297	-0.5766	6.3264
C	2.5811	-1.8689	5.8719
C	2.1888	-2.0180	4.5227
C	5.0561	-0.8282	3.5264
C	-5.5748	2.9390	-2.2053
C	5.4892	-0.5912	4.8444
N	-1.9383	0.4375	0.5186
N	-0.9890	0.5182	-2.9333
N	-5.3103	1.9960	-2.8135
C	5.5748	-2.9390	2.2053
N	1.9383	-0.4375	-0.5186
H	5.0024	0.1051	-1.1919
N	0.9890	-0.5182	2.9333
N	5.3103	-1.9960	2.8135
H	4.5143	3.0392	1.1340
H	2.2616	4.5905	-0.3472
H	-0.0728	5.1280	0.2421
C	-6.4539	-4.0750	1.2333
H	-5.0024	-0.1051	1.1919
H	-4.2600	7.3316	1.7706
H	-2.4661	6.6964	3.0313
H	-1.3289	4.7200	2.5500
H	-4.5143	-3.0392	-1.1340
H	-2.2616	-4.5905	0.3472
H	1.2714	1.0236	5.2608
H	0.0728	-5.1280	-0.2421
H	5.1928	1.1238	6.0539
H	3.9712	2.1499	4.0694
H	3.9700	0.3958	2.1498
H	4.2600	-7.3316	-1.7706
Ru	0.0000	0.0000	0.0000
H	2.4661	-6.6964	-3.0313
C	2.9605	0.4661	-0.6795
H	1.3289	-4.7200	-2.5500
C	-1.7429	2.8962	0.6798
H	-1.2714	-1.0236	-5.2608
C	-2.4814	4.1688	0.9990
H	-5.1928	-1.1238	-6.0539
H	-3.9712	-2.1499	-4.0694
C	-3.8154	6.5352	1.5735
H	-3.9700	-0.3958	-2.1498
C	-2.7497	6.1638	2.3152
C	-2.9605	-0.4661	0.6795
C	-2.0751	4.9741	2.0383
C	-0.3923	3.0457	0.3337
C	0.3028	4.2802	0.1484
C	1.5806	3.9856	-0.1836
C	1.7429	-2.8962	-0.6798
C	1.6866	2.5510	-0.2282
C	2.4814	-4.1688	-0.9990
C	2.8494	1.8355	-0.5624
C	4.1054	2.6446	-0.8024
C	3.8154	-6.5352	-1.5735
C	2.7497	-6.1638	-2.3152
C	2.0751	-4.9741	-2.0383
C	5.9812	3.8747	0.0445
C	0.3923	-3.0457	-0.3337
C	4.8235	3.1662	0.2676
C	-0.3028	-4.2802	-0.1484
C	-1.5806	-3.9856	0.1836
H	7.2500	4.5416	-1.3698
C	-1.6866	-2.5510	0.2282
C	1.5831	0.0928	5.2687
H	6.4693	4.2265	0.7698
C	-2.8494	-1.8355	0.5624
C	-4.1054	-2.6446	0.8024
C	-5.9812	-3.8747	-0.0445
C	5.0778	0.7012	5.1765
C	-4.8235	-3.1662	-0.2676
C	4.3776	1.2533	4.0919
C	4.3712	0.3005	3.0295
C	-1.5831	-0.0928	-5.2687
N	0.4753	1.9904	0.0836
C	-5.0778	-0.7012	-5.1765
C	-4.3776	-1.2533	-4.0919
C	-4.3712	-0.3005	-3.0295
Fe	-3.4627	0.4556	-4.6904
N	-0.4753	-1.9904	-0.0836
H	-4.4415	2.2696	1.3255
H	4.0773	2.5286	-2.7844
H	6.0565	3.7281	-3.1645
Fe	3.4627	-0.4556	4.6904
H	4.4415	-2.2696	-1.3255
H	-4.0773	-2.5286	2.7844
H	-6.0565	-3.7281	3.1645
H	-3.8895	3.9919	-0.4682
H	-4.9602	6.0246	0.0074
H	3.8895	-3.9919	0.4682
H	-2.3127	2.8242	-3.9588
H	4.9602	-6.0246	-0.0074
H	-3.0666	2.5237	-6.4108
H	-2.4252	0.1930	-7.2026
C	6.4539	4.0750	-1.2333
H	-5.9901	1.2191	-5.4248
H	2.3127	-2.8242	3.9588
H	3.0666	-2.5237	6.4108
H	2.4252	-0.1930	7.2026
H	5.9901	-1.2191	5.4248
C	-4.1642	0.2619	1.0396
C	-3.8575	1.5694	1.0982
C	-2.4533	1.6979	0.7550
*