! UKS B3LYP ma-def2-SVP OPT NumFreq
%basis
NewGTO Br "ma-def2-TZVP" end
end 

%scf
  maxiter 200
end

%pal 
	nprocs 16
end
* xyz 0 1
Fe	0.0278	0.0526	0.0699
H	-1.2331	-2.6473	-0.8777
H	-2.2837	-0.9218	-4.2684
H	-0.9007	0.6314	-2.9661
H	-2.6963	-4.0645	-2.3020
H	-3.7179	-3.1836	-3.1014
H	-2.4686	-3.7899	-3.8282
H	2.6555	0.1067	1.7714
C	1.8236	-2.2587	0.8135
C	-0.1166	-2.3338	1.8734
C	-2.3016	-1.3364	1.3740
C	-2.8959	0.5964	0.4683
C	2.1552	1.1716	-1.7403
C	2.6419	-0.9037	-1.0715
C	1.9516	-3.2005	1.8998
C	0.7765	-3.2186	2.5599
C	-3.7366	-1.3610	1.1973
C	-4.0912	-0.1925	0.6417
F	4.9126	6.0643	-1.9083
F	4.0717	6.7716	-4.3714
C	3.2696	0.6961	-2.5444
C	3.5429	-0.5617	-2.1740
C	-1.5147	-2.2859	2.0025
C	2.7476	-1.9737	-0.1987
C	-2.1805	-3.3986	2.7336
C	-2.2392	-4.6630	2.2037
C	-2.8495	-5.7161	2.8396
C	-3.4275	-5.4959	4.0613
C	-3.4089	-4.2497	4.6370
C	-2.7860	-3.2056	3.9629
C	3.9952	-2.7937	-0.2490
C	5.1720	-2.3468	0.3354
H	-0.5766	2.1949	2.4282
C	5.2141	-4.7536	-0.9713
C	4.0419	-4.0230	-0.8832
C	-1.3275	-2.0177	-1.5568
C	-1.9114	-1.0799	-3.4295
C	-1.1456	-0.2262	-2.7016
C	-2.7923	-3.4168	-3.0055
C	2.0442	0.6974	2.1491
C	-1.6286	2.5758	-0.2666
C	0.4421	2.8141	-1.0546
Br	3.4310	-4.2018	2.4617
Br	0.5005	-4.1056	4.1932
Br	-4.9372	-2.7665	1.4660
Br	-5.8670	0.1412	0.1046
C	-1.4314	3.9709	-0.5255
Br	4.8024	-1.6545	-3.0239
N	0.5706	-1.6809	0.8637
C	-0.1464	4.1342	-0.9675
N	-1.8034	-0.1562	0.8422
N	1.7420	0.1443	-0.9070
N	-0.7904	-0.8117	-1.5239
C	-2.8094	1.9294	0.0666
N	-2.0224	-2.2263	-2.6758
C	1.6330	2.4670	-1.7034
N	0.8181	0.9099	1.6793
F	-1.7101	-4.8897	0.9818
F	-2.8976	-6.9338	2.2862
F	-4.0281	-6.5050	4.7131
F	-3.9956	-4.0438	5.8068
F	-2.7747	-1.9918	4.5369
C	-4.0972	2.6976	0.0144
C	-4.7380	3.1613	1.1451
C	-5.9835	3.7702	1.0629
C	-6.5614	3.9463	-0.1458
C	-5.9519	3.5046	-1.2881
C	-4.7205	2.8802	-1.1980
C	2.3282	3.5616	-2.4486
C	1.9248	3.9554	-3.7029
C	2.4946	5.0189	-4.3688
C	3.5114	5.7184	-3.7335
F	5.1470	-1.1913	1.0270
C	3.9546	5.3531	-2.4926
C	3.3771	4.2598	-1.8811
F	5.2509	-5.9221	-1.6247
F	2.9470	-4.5049	-1.4927
C	0.2786	1.8387	2.5125
H	4.1399	0.8063	3.6214
H	3.3020	1.0809	4.9162
Br	-2.6154	5.4063	-0.2834
Br	0.5694	5.8304	-1.3227
Br	4.1741	1.5452	-3.9580
N	-0.4448	1.8853	-0.5355
F	-4.1681	3.0085	2.3481
F	-6.5990	4.1886	2.1848
F	-7.7596	4.5370	-0.2366
F	-6.5389	3.6691	-2.4894
F	-4.1733	2.3944	-2.3105
F	3.8140	3.9424	-0.6459
F	2.0848	5.3752	-5.5784
F	0.9259	3.2999	-4.3051
H	1.0246	2.7727	4.1820
H	3.8818	2.2804	4.0897
C	6.3348	-3.0618	0.2841
C	6.3431	-4.2601	-0.3857
C	1.1577	2.1703	3.4871
C	3.5076	1.3983	4.0333
N	2.2843	1.4384	3.2346
F	7.4440	-2.6084	0.8850
F	7.4840	-4.9855	-0.4583
*