! UKS B3LYP ma-def2-SVP OPT NumFreq
%basis

end 

%scf
  maxiter 200
end

%pal 
	nprocs 16
end
* xyz 0 1
C	-2.1688	5.2325	-0.3873
C	-1.6559	5.9172	0.8889
C	3.1470	4.6191	-1.0626
C	3.1696	5.4164	0.2423
C	-5.1439	-1.3084	3.1260
H	4.3637	-0.4217	-0.2646
Fe	-0.0224	-0.0506	-0.3217
H	-4.2629	0.5542	0.7211
H	-0.3572	-4.2519	0.8949
H	0.3930	4.2720	-0.9296
H	3.0865	-5.5099	0.5063
H	-5.2079	2.5511	0.0099
H	-4.8445	4.1059	-0.1061
H	3.2654	-4.9737	2.7672
H	-4.6130	2.6024	2.3136
H	-5.8038	3.6259	2.0052
H	-4.3097	4.1682	2.1876
H	5.2404	-2.6104	-0.2409
H	-5.3864	-2.8400	1.7479
H	4.9099	-4.0504	0.3767
H	-5.5430	-1.3890	1.0915
H	5.1838	-1.6553	1.9255
H	6.2554	-2.8424	1.8905
H	4.8189	-3.0806	2.5538
H	5.5137	2.9945	-1.1259
H	-2.5124	-5.0922	1.2301
H	5.5575	1.3957	-1.1786
H	-3.9540	-4.6318	1.7517
H	5.4426	2.9126	1.2415
H	-1.5450	-4.4522	3.2931
H	6.7530	2.1737	0.6959
H	5.4949	1.3139	1.1842
H	1.4911	-5.5490	0.6088
H	2.3387	-6.2733	2.6376
H	1.6750	-4.8394	2.8932
H	-1.3826	-0.8907	-5.1541
H	-0.3780	-3.0379	-4.5019
H	0.4069	-2.6995	-2.1798
H	-2.1087	1.3725	-2.8817
H	-1.6087	1.4250	-4.4019
H	-0.6163	1.8439	-3.2186
C	-0.9645	2.9034	-0.3861
C	-2.6286	1.5666	0.1635
C	-2.8233	-0.8467	0.7720
C	-1.4381	-2.5613	0.8217
C	1.0214	-2.8609	0.4788
C	2.6978	-1.4942	0.0727
C	2.9116	0.9390	-0.4532
C	1.4991	2.6171	-0.6942
C	-2.1614	3.7344	-0.2751
C	-3.1840	2.9054	0.0587
C	-3.5837	-1.9833	1.2613
C	-2.7300	-3.0504	1.2840
C	2.2438	-3.6435	0.5722
C	3.2831	-2.7946	0.3560
C	3.7051	2.1308	-0.6946
C	4.7538	-3.0779	0.4831
C	2.8307	3.1666	-0.8587
C	5.3021	-2.6238	1.8339
C	5.2056	2.1708	-0.6716
C	-3.3326	0.4388	0.5674
C	5.7742	2.1395	0.7372
C	-0.2656	-3.3180	0.7461
C	3.4192	-0.3314	-0.2201
C	0.3165	3.3548	-0.6935
C	-4.6143	3.2632	0.3588
C	-4.8569	3.4293	1.8487
C	-5.0124	-1.9240	1.7334
C	-2.9854	-4.4373	1.8020
H	-3.0919	5.5386	-0.5718
C	-2.5127	-4.5976	3.2483
H	-1.6007	5.5032	-1.1521
C	2.3029	-5.0950	0.9471
H	-2.2432	5.6900	1.6402
C	2.4053	-5.3145	2.4434
H	-1.6526	6.8882	0.7598
H	-0.7456	5.6094	1.0821
C	-0.8784	-0.1567	-3.3734
C	-0.4472	-2.2415	-3.9885
C	-0.0161	-2.0449	-2.7214
C	-1.3422	1.2381	-3.4771
N	-1.2807	1.5900	-0.1330
N	-1.5309	-1.2255	0.5145
N	1.3223	-1.5612	0.1383
N	1.5743	1.2624	-0.4658
N	-0.2903	-0.7258	-2.3290
N	-1.0043	-1.0483	-4.3752
H	2.4716	5.0134	-1.6688
H	4.0298	4.6971	-1.5035
H	2.2997	5.3407	0.6856
H	3.3553	6.3581	0.0451
H	3.8683	5.0610	0.8300
H	-4.6087	-1.8250	3.7641
H	-6.0847	-1.3231	3.4011
H	-4.8242	-0.3826	3.1050
H	-2.7229	-5.5014	3.5617
H	-2.9679	-3.9405	3.8146
*