! UKS B3LYP ma-def2-SVP OPT NumFreq
%basis

end 

%scf
  maxiter 200
end

%pal 
	nprocs 16
end
* xyz 0 1
Fe	0.0041	0.0444	-0.1216
H	0.2684	-4.2571	-0.9337
H	4.3134	0.0978	0.7335
H	0.0013	4.4506	-0.1311
H	-4.0195	0.1057	-1.8488
H	-5.1102	-2.0026	-1.9037
H	-4.7703	-3.5096	-2.3226
H	-4.2907	-1.2431	-4.0066
H	-5.4967	-2.2755	-4.2073
H	-3.9872	-2.7580	-4.4255
H	-3.2526	-5.1056	-1.6699
H	-1.7572	-5.3191	-1.1505
H	-2.4513	-4.8939	-3.8931
H	-2.0142	-6.3040	-3.2762
H	-0.9539	-5.1115	-3.3717
H	3.8197	-5.0680	-0.1528
H	2.4295	-5.2381	-0.9240
H	2.7088	-5.2479	1.9240
H	2.3890	-6.5374	1.0316
H	1.3004	-5.3725	1.1706
H	4.7262	-1.5655	2.5288
H	4.6473	-3.1536	2.6976
H	5.1067	3.7189	1.0315
H	4.4288	3.0188	3.2014
H	4.7465	1.4999	2.8105
H	1.9418	5.5324	0.1775
H	3.5000	5.3386	0.4859
H	5.5357	-1.8938	0.2800
H	5.3050	-3.4680	0.4623
H	1.4562	5.1606	2.4758
H	2.4234	6.4204	2.2936
H	6.0658	-2.4396	2.4912
H	3.0224	5.0163	2.7718
H	-1.9231	5.5265	-0.6005
H	-3.4206	5.3228	-1.1310
H	-0.0716	-0.9069	5.6540
H	5.4183	2.1981	0.6407
H	-1.1097	5.3584	-2.8200
H	-1.2169	-2.0026	5.4322
H	-2.1781	6.5450	-2.7182
H	-1.5953	-0.5450	5.9741
H	-2.6010	5.1389	-3.3547
H	5.9363	2.5659	2.9203
H	-4.8634	3.7149	-2.0600
H	-5.1891	2.1704	-1.8059
H	-3.8718	3.1790	-4.1455
H	-5.3753	2.6312	-4.1103
H	-4.1531	1.6245	-3.8887
H	-2.9491	0.5328	4.0811
H	-2.5262	0.9936	1.6952
H	1.5695	-1.1106	3.5376
H	1.1952	-1.8147	2.1514
H	0.6771	-2.4376	3.5319
C	-2.4914	-1.1442	-1.5009
C	-0.9680	-2.6928	-1.1631
C	1.4076	-2.6977	-0.3869
C	2.8535	-1.1535	0.1938
C	2.7701	1.3409	0.4409
C	1.2352	2.8889	0.1420
C	-1.1439	2.8940	-0.6514
C	-2.5658	1.3427	-1.2876
C	-3.1000	-2.4080	-1.8641
C	-2.1621	-3.3771	-1.6424
C	2.6557	-3.3820	-0.0807
C	3.5516	-2.4179	0.2712
C	3.4024	2.6102	0.7120
C	2.4485	3.5676	0.5253
C	-2.3200	3.5894	-1.1505
C	-3.1992	2.6225	-1.5455
C	0.2390	-3.3126	-0.8375
C	3.3986	0.0930	0.4797
C	0.0255	3.5039	-0.2069
C	-3.1116	0.1063	-1.5714
C	-4.4854	-2.5660	-2.4242
C	-4.5728	-2.1766	-3.8979
C	-2.3088	-4.8554	-1.8280
C	-1.8948	-5.3350	-3.2167
C	2.8514	-4.8716	-0.1066
C	2.2595	-5.5703	1.1145
C	4.9729	-2.5735	0.7297
C	-1.0004	-1.0473	5.3793
C	5.1160	-2.4198	2.2495
C	4.8276	2.7815	1.1806
C	5.0000	2.4354	2.6610
C	2.5890	5.0544	0.7528
C	2.3506	5.4474	2.2023
C	-2.4739	5.0770	-1.2903
C	-2.0528	5.5740	-2.6690
C	-4.5388	2.7937	-2.2166
C	-4.4795	2.5323	-3.7270
C	-0.3537	-0.7786	2.9656
C	-2.2145	0.2184	3.5675
C	-1.9758	0.4696	2.2651
C	0.8775	-1.6050	3.0540
N	-1.1943	-1.3485	-1.0835
N	1.5426	-1.3568	-0.1836
N	1.4424	1.5250	0.1015
N	-1.3238	1.5371	-0.7325
N	-0.7942	-0.1592	1.8869
N	-1.1785	-0.5853	4.0107
*