! UKS B3LYP ma-def2-SVP OPT NumFreq
%basis
NewGTO Sn "ma-def2-TZVP" end
end 

%scf
  maxiter 200
end

%pal 
	nprocs 16
end
* xyz 0 1
C	-3.5623	-3.1548	-3.2515
H	3.6074	-3.8261	-0.9168
H	-3.4157	6.7034	-2.6294
H	4.8549	-7.0429	0.8760
H	-1.8975	4.8768	-2.5564
C	4.3075	3.7783	4.2249
H	3.4157	-6.7034	2.6294
N	-3.0507	-2.6785	-5.9311
C	3.5623	3.1548	3.2515
C	-0.7617	2.9780	0.4010
H	1.8975	-4.8768	2.5564
C	0.7617	-2.9780	-0.4010
C	-0.4808	4.1088	1.2546
C	0.4808	-4.1088	-1.2546
H	-4.5197	-3.9758	-6.1937
C	4.0133	3.5253	5.5276
N	-0.0543	-1.9479	-0.7767
H	-0.8539	-4.2675	-2.8257
Sn	0.0000	0.0000	0.0000
C	-3.0764	0.5434	-2.9823
N	0.0543	1.9479	0.7767
C	-3.0600	1.7917	-2.4561
H	0.8539	4.2675	2.8257
H	-1.6474	-1.4432	-5.2091
C	3.0764	-0.5434	2.9823
C	-2.0133	1.8498	-1.4656
Cl	-1.8129	-0.4661	1.4959
C	3.0600	-1.7917	2.4561
C	2.5525	2.2796	3.6053
C	-1.7201	2.9380	-0.6364
H	-5.0118	-4.3721	-3.9919
Cl	1.8129	0.4661	-1.4959
C	2.0133	-1.8498	1.4656
H	1.6474	1.4432	5.2091
H	-3.7427	-3.3252	-2.3349
C	1.7201	-2.9380	0.6364
H	5.0118	4.3721	3.9919
C	2.3291	2.0550	4.9534
H	3.7427	3.3252	2.3349
N	3.0507	2.6785	5.9311
C	-2.5976	4.1449	-0.7803
C	-3.5490	4.4212	0.1794
C	2.5976	-4.1449	0.7803
H	4.5197	3.9758	6.1937
C	-4.2911	6.2787	-0.8597
C	-0.4777	-3.7293	-2.1394
C	3.5490	-4.4212	-0.1794
C	-3.4198	6.1006	-1.8948
C	-0.8201	-2.3661	-1.8494
C	4.2911	-6.2787	0.8597
C	-2.5290	5.0124	-1.8602
C	-1.7488	-1.5761	-2.5494
C	3.4198	-6.1006	1.8948
C	0.4777	3.7293	2.1394
C	-2.0338	-0.2207	-2.3405
C	2.5290	-5.0124	1.8602
N	-1.4003	0.6157	-1.4346
H	0.8929	-4.9646	-1.2061
C	0.8201	2.3661	1.8494
H	-0.8929	4.9646	1.2061
C	-4.0133	-3.5253	-5.5276
H	-3.6699	0.2272	-3.6525
N	1.4003	-0.6157	1.4346
C	1.7488	1.5761	2.5494
H	-3.6371	2.5055	-2.6998
C	2.0338	0.2207	2.3405
H	3.6699	-0.2272	3.6525
N	-4.3957	5.4525	0.1605
H	3.6371	-2.5055	2.6998
N	4.3957	-5.4525	-0.1605
C	-2.5525	-2.2796	-3.6053
C	-2.3291	-2.0550	-4.9534
H	-3.6074	3.8261	0.9168
C	-4.3075	-3.7783	-4.2249
H	-4.8549	7.0429	-0.8760
*