! UKS B3LYP ma-def2-SVP OPT NumFreq
%basis
NewGTO Cd "ma-def2-TZVP" end
end 

%scf
  maxiter 200
end

%pal 
	nprocs 16
end
* xyz 0 1
H	1.6772	2.7141	-7.1926
H	-7.4857	2.1791	-1.0699
H	1.8814	-1.2578	-5.0430
C	-1.7077	1.8856	6.7706
H	1.9291	-2.8147	-0.1817
C	-1.7899	-0.4348	5.4671
H	-3.5625	0.7356	-3.7244
H	2.4011	-1.0423	-7.2740
H	3.7229	0.5275	-3.5846
H	-1.9795	-5.0923	0.1965
C	-2.1426	-0.2806	6.8069
H	-0.0000	-6.2665	-0.0000
H	-1.4478	0.8173	-4.9352
H	4.8658	-1.2950	2.3037
H	5.2556	2.2757	0.4905
H	4.9600	0.4736	-1.4744
H	-1.9291	-2.8147	0.1817
C	6.7034	-0.4646	2.3838
C	2.3918	0.4625	1.9475
H	-3.7229	0.5275	3.5846
C	6.9408	1.4750	1.3352
H	-4.8658	-1.2950	-2.3037
C	1.9370	0.4643	-2.3956
H	-5.2556	2.2757	-0.4905
C	1.2927	1.8038	-5.4400
N	7.5095	0.5182	2.0352
H	-4.9600	0.4736	1.4744
H	-7.0601	-1.1482	-2.9033
C	1.1681	-4.6446	-0.1154
C	-1.3059	0.6446	4.7899
C	-2.3918	0.4625	-1.9475
C	0.5078	0.5312	3.0704
C	-6.9408	1.4750	-1.3352
C	1.7077	1.8856	-6.7706
C	-1.9370	0.4643	2.3956
C	1.7899	-0.4348	-5.4671
C	-2.7127	0.6576	-3.3557
C	1.1270	-3.2810	-0.1073
N	-2.1372	0.8545	7.4574
C	2.1426	-0.2806	-6.8069
C	-1.1681	-4.6446	0.1154
C	-0.5078	0.5312	-3.0704
C	3.3570	0.4941	-2.7317
C	-0.0000	-5.3376	-0.0000
C	-1.5526	0.6984	-4.0185
C	0.9029	0.5219	-3.3374
C	4.7770	0.4513	1.2852
C	5.3670	-0.5593	2.0352
C	-1.1270	-3.2810	0.1073
C	5.5924	1.5400	0.9493
C	3.0561	0.4030	-0.4894
C	-3.3570	0.4941	2.7317
C	4.0345	0.4606	-1.5700
C	-0.9029	0.5219	3.3374
C	3.3517	0.4142	0.8979
C	-4.7770	0.4513	-1.2852
C	-5.3670	-0.5593	-2.0352
C	1.3059	0.6446	-4.7899
N	-0.0000	-2.5806	-0.0000
C	-5.5924	1.5400	-0.9493
N	1.0620	0.3789	1.8245
C	-3.0561	0.4030	0.4894
N	1.8137	0.3919	-1.0530
C	-4.0345	0.4606	1.5700
C	-3.3517	0.4142	-0.8979
N	2.1372	0.8545	-7.4574
C	-6.7034	-0.4646	-2.3838
N	-1.0620	0.3789	-1.8245
H	3.5625	0.7356	3.7244
N	-1.8137	0.3919	1.0530
N	-7.5095	0.5182	-2.0352
H	1.4478	0.8173	4.9352
H	-1.0023	2.5711	5.0011
H	-1.6772	2.7141	7.1926
H	-1.8814	-1.2578	5.0430
H	7.0601	-1.1482	2.9033
H	-2.4011	-1.0423	7.2740
C	2.7127	0.6576	3.3557
Cd	-0.0000	-0.2728	-0.0000
C	1.5526	0.6984	4.0185
H	7.4857	2.1791	1.0699
H	1.0023	2.5711	-5.0011
C	-1.2927	1.8038	5.4400
H	1.9795	-5.0923	-0.1965
*