! UKS B3LYP ma-def2-SVP OPT NumFreq
%basis

end 

%scf
  maxiter 200
end

%pal 
	nprocs 16
end
* xyz 0 1
C	2.5163	2.2920	0.3879
H	-3.4996	-2.2288	-3.0387
C	2.1472	1.5574	1.5157
H	-2.3899	-0.5939	-4.5232
C	2.7850	1.6492	2.8041
C	2.1788	0.7620	3.6117
C	1.1571	0.1192	2.8424
H	-5.1489	-2.1286	-0.0963
H	-6.8253	-3.6884	-0.6050
H	-4.0640	-6.3870	-1.5626
H	-2.3854	-4.8225	-1.1230
H	-6.6244	-6.9654	-0.9794
C	3.6000	3.3128	0.5914
H	-7.5805	-5.7478	-1.3809
H	-6.6074	-6.3954	-2.4741
C	4.9107	2.9908	0.4173
C	5.9132	3.9329	0.7100
C	5.6095	5.1707	1.1394
C	4.2988	5.5105	1.2800
C	3.2964	4.5756	1.0108
C	6.7034	6.1581	1.5287
H	0.0779	-0.4126	-5.6384
C	-2.5163	-2.2920	-0.3879
C	-2.1472	-1.5574	-1.5157
C	-2.7850	-1.6492	-2.8041
C	-2.1788	-0.7620	-3.6117
C	-1.1571	-0.1192	-2.8424
N	1.1481	0.6141	1.5595
C	-3.6000	-3.3128	-0.5914
C	-4.9107	-2.9908	-0.4173
C	-5.9132	-3.9329	-0.7100
C	-5.6095	-5.1707	-1.1394
C	-4.2988	-5.5105	-1.2800
C	-3.2964	-4.5756	-1.0108
C	-6.7034	-6.1581	-1.5287
N	-1.1481	-0.6141	-1.5595
H	1.6358	2.8417	-3.9630
H	3.0627	3.5668	-2.0727
H	-0.3353	0.2934	-7.8319
H	-1.4608	3.9376	-6.4660
H	-1.0826	3.2102	-4.2698
H	-1.6358	-2.8417	3.9630
H	-3.0627	-3.5668	2.0727
C	-0.2901	0.8789	-3.3232
H	0.3353	-0.2934	7.8319
H	1.4608	-3.9376	6.4660
C	0.6977	1.5252	-2.5551
H	1.0826	-3.2102	4.2698
C	1.5963	2.5221	-3.0687
C	2.3729	2.9145	-2.0403
C	1.9643	2.1620	-0.8863
C	-0.4798	1.3332	-4.7342
C	-0.2450	0.4651	-5.8022
C	-0.6977	-1.5252	2.5551
C	-0.4809	0.8836	-7.1026
C	-1.5963	-2.5221	3.0687
C	-0.9246	2.1596	-7.3195
C	-2.3729	-2.9145	2.0403
C	-1.1571	3.0552	-6.2914
C	-1.9643	-2.1620	0.8863
C	-0.9280	2.6163	-4.9948
C	0.2901	-0.8789	3.3232
N	-1.2000	2.6187	-8.6855
O	-1.0137	1.8364	-9.5972
O	-1.5996	3.7719	-8.8470
C	0.4798	-1.3332	4.7342
N	0.9550	1.3034	-1.2328
C	0.2450	-0.4651	5.8022
C	0.4809	-0.8836	7.1026
C	0.9246	-2.1596	7.3195
C	1.1571	-3.0552	6.2914
C	0.9280	-2.6163	4.9948
Zn	0.0000	0.0000	0.0000
N	-0.9550	-1.3034	1.2328
H	3.4996	2.2288	3.0387
H	2.3899	0.5939	4.5232
H	5.1489	2.1286	0.0963
H	6.8253	3.6884	0.6050
H	-0.0779	0.4126	5.6384
H	4.0640	6.3870	1.5626
N	1.2000	-2.6187	8.6855
H	2.3854	4.8225	1.1230
H	6.6244	6.9654	0.9794
O	1.0137	-1.8364	9.5972
H	7.5805	5.7478	1.3809
O	1.5996	-3.7719	8.8470
H	6.6074	6.3954	2.4741
*