! UKS B3LYP ma-def2-SVP OPT NumFreq
%basis

end 

%scf
  maxiter 200
end

%pal 
	nprocs 16
end
* xyz 0 1
C	-2.7589	0.0250	-3.2713
C	-2.2351	0.5301	-2.0512
C	-2.6479	1.7026	-1.4294
C	-2.1776	2.2226	-0.2487
C	-2.5948	3.4348	0.3642
C	-1.9200	3.5772	1.5385
C	-1.0278	2.4527	1.6297
C	-0.1414	2.2010	2.6981
C	0.6460	1.1097	2.8252
C	1.5650	0.8315	3.9250
C	-0.0213	3.3023	3.7127
C	0.4050	4.5625	3.2826
C	0.6888	5.5611	4.1679
C	-0.8393	-8.3560	-7.3506
C	3.5849	-2.4789	2.2334
C	0.5916	5.3342	5.5212
C	0.1183	4.1154	5.9734
C	4.6933	-1.7900	2.7405
C	-0.2110	3.1135	5.0478
C	5.7307	-2.4855	3.3044
C	1.0998	6.3576	6.4851
C	5.6846	-3.8451	3.4089
C	4.6072	-4.5207	2.9326
C	1.5251	8.4839	7.0070
C	3.5795	-3.8467	2.3621
C	-3.6897	2.5057	-2.1632
C	6.8518	-4.5986	4.0703
C	-3.3926	3.6351	-2.8280
C	8.9003	-4.6101	4.9198
C	-4.3457	4.3422	-3.5274
C	7.6927	-6.4616	4.8937
C	-5.6427	3.9117	-3.5508
C	-5.9807	2.7127	-2.9090
C	-5.0023	2.0139	-2.2111
C	-6.6726	4.7049	-4.2793
C	-8.7467	4.8937	-5.0927
N	7.5838	-7.7649	5.2316
C	-7.3235	6.6358	-5.2436
N	10.0380	-3.9544	5.2468
N	8.8309	-5.8671	5.2928
N	6.6676	-5.8969	4.2916
N	7.9164	-3.8798	4.3077
N	-0.7214	-9.6494	-7.0521
N	-0.5551	-7.4916	-6.3348
N	0.8873	0.1492	1.8666
N	-1.2314	1.6330	0.5429
N	-9.9662	4.3704	-5.3416
N	-7.0612	7.8613	-5.5918
N	-8.5275	6.1556	-5.4816
N	-7.8593	4.0972	-4.5115
N	-6.3587	5.9453	-4.5986
N	1.4570	9.7773	6.6526
N	2.0266	8.1941	8.1500
N	1.0305	7.6195	6.0797
N	1.5598	5.9237	7.6238
Zn	-0.3185	-0.1909	0.2228
H	-2.2564	-1.7022	-4.2682
H	-0.0112	-2.0632	-5.1416
H	-0.2655	-3.6199	-6.8110
H	-0.6619	-6.4781	-4.0261
H	-0.3094	-4.9132	-2.3742
H	3.0132	7.1012	10.0983
H	2.7612	5.6704	9.7677
H	-1.9541	-5.5061	-10.1424
H	-1.9146	-6.9269	-10.5866
H	-2.3120	-1.2683	1.6909
H	-1.9082	-2.3215	0.8887
C	0.9025	-2.4043	-1.5324
C	-0.1194	-2.2818	-2.4907
C	-1.0770	-1.2865	-2.5256
C	-2.0935	-1.1276	-3.5550
C	2.1082	6.8693	8.4313
H	-10.5715	4.8506	-5.7185
C	-0.1905	-3.3135	-3.5545
C	-0.1496	-2.9541	-4.9138
C	-0.3074	-3.8782	-5.9192
C	-0.5341	-5.2196	-5.5734
C	-0.5311	-5.5855	-4.2568
C	-0.3381	-4.6383	-3.2618
C	-0.7595	-6.2214	-6.6539
C	-1.3549	-6.7000	-8.7644
H	3.5341	-3.5735	-0.3019
H	2.1718	-3.9196	-2.2740
N	0.9518	-1.6906	-0.3622
H	2.8763	-0.6788	4.1925
N	-1.2074	-0.2615	-1.6053
N	2.6968	6.5050	9.5647
N	-1.7934	-6.3341	-9.9768
N	-1.2431	-8.0364	-8.5626
N	-1.1765	-5.7429	-7.8362
H	4.7271	-0.8609	2.6925
H	6.4753	-2.0268	3.6186
H	4.5738	-5.4481	2.9964
H	2.8466	-4.3253	2.0494
H	6.8625	-8.1954	5.0516
H	8.2354	-8.1623	5.6260
H	10.6623	-4.3617	5.6760
H	-3.4323	0.4125	-3.7844
H	10.1370	-3.1280	5.0276
H	-3.2227	4.0293	0.0206
H	-0.9069	-10.2456	-7.6450
H	-2.0180	4.2628	2.1594
H	-0.4607	-9.8879	-6.2689
O	-1.7302	-1.5151	1.1100
H	1.6516	1.3399	4.6983
H	0.4965	4.7248	2.3698
H	0.9476	6.3990	3.8568
H	0.0185	3.9614	6.8852
H	-0.5651	2.3087	5.3524
H	-2.5170	3.9498	-2.8156
H	-4.1060	5.1156	-3.9856
H	-6.8517	2.3865	-2.9503
H	-5.2168	1.2207	-1.7755
C	2.0593	-2.1642	0.2973
C	2.7360	-3.1429	-0.5069
C	2.0017	-3.3135	-1.5904
H	-10.1364	3.5540	-5.1260
H	-7.6684	8.3399	-5.9690
H	-6.2813	8.1941	-5.4437
C	2.2554	-0.2598	3.6411
C	1.8604	-0.6854	2.3110
H	1.7449	10.3867	7.1890
C	2.4350	-1.7353	1.6096
H	1.1240	9.9992	5.8917
*