! UKS B3LYP ma-def2-SVP OPT NumFreq
%basis

end 

%scf
  maxiter 200
end

%pal 
	nprocs 16
end
* xyz 0 1
C	-0.4460	-4.0686	1.7077
C	0.4460	-4.0686	-1.7077
Ni	0.0000	-0.1760	0.0000
C	-5.3390	0.9379	0.9012
C	5.3390	0.9379	-0.9012
N	-0.7129	-0.1637	-1.7323
N	0.7129	-0.1637	1.7323
H	-1.2339	-0.2220	-6.0135
N	-1.7284	-0.1479	0.7173
N	1.7284	-0.1479	-0.7173
H	0.1386	-0.9499	-5.6332
H	-0.1386	-0.9499	5.6332
H	-1.3148	-2.4812	-6.6842
H	1.2339	-0.2220	6.0135
H	-1.0468	-2.9518	-5.1773
H	1.0468	-2.9518	5.1773
H	-2.4217	-2.2247	-5.5538
H	1.3148	-2.4812	6.6842
H	-3.3922	-0.0450	-5.0955
H	2.4217	-2.2247	5.5538
H	3.3922	-0.0450	5.0955
H	-4.0461	0.7253	-3.8564
H	4.0461	0.7253	3.8564
H	-3.8104	2.1968	-5.6757
H	-2.8861	2.6985	-4.4692
H	2.8861	2.6985	4.4692
H	-2.2345	1.9267	-5.7095
H	3.8104	2.1968	5.6757
H	-3.6810	2.2279	-2.5657
H	3.6810	2.2279	2.5657
H	-4.7116	1.7701	-1.4240
H	4.7116	1.7701	1.4240
H	2.2345	1.9267	5.7095
H	-2.5187	3.5776	-0.9674
H	2.5187	3.5776	0.9674
H	-3.5447	3.1229	0.1664
H	3.5447	3.1229	-0.1664
H	-7.1240	0.3886	0.0176
H	7.1240	0.3886	-0.0176
H	-4.1247	5.2626	-0.5191
H	4.1247	5.2626	0.5191
H	-5.8462	-0.1176	-0.8024
H	5.8462	-0.1176	0.8024
H	-5.2939	4.2669	-0.9554
H	5.2939	4.2669	0.9554
H	-6.2829	-0.8659	0.5443
H	6.2829	-0.8659	-0.5443
H	-4.8341	5.7642	-2.6657
H	4.8341	5.7642	2.6657
H	-5.3032	-0.5973	3.1189
H	5.3032	-0.5973	-3.1189
H	-3.3136	5.2724	-2.7096
H	3.3136	5.2724	2.7096
H	-4.1062	-1.4515	3.7549
H	4.1062	-1.4515	-3.7549
H	-4.4875	4.2783	-3.1484
H	4.4875	4.2783	3.1484
H	-4.6954	0.3038	5.2091
H	4.6954	0.3038	-5.2091
H	-5.7422	1.0725	1.7975
H	5.7422	1.0725	-1.7975
H	-3.1958	0.5232	4.6941
H	3.1958	0.5232	-4.6941
H	-5.3055	1.8185	0.4508
H	5.3055	1.8185	-0.4508
H	-0.9035	-2.4214	4.4710
H	0.9035	-2.4214	-4.4710
H	-2.3200	-1.6785	4.5337
H	2.3200	-1.6785	-4.5337
H	-2.9901	-3.0759	2.6244
H	2.9901	-3.0759	-2.6244
H	-2.8907	-3.8174	4.0325
H	2.8907	-3.8174	-4.0325
H	-2.0103	-5.1028	2.3452
H	2.0103	-5.1028	-2.3452
H	-0.9428	-4.8017	3.4781
H	0.9428	-4.8017	-3.4781
H	0.0393	-4.8804	1.4578
H	-0.0393	-4.8804	-1.4578
H	-4.3927	1.3759	4.0607
H	4.3927	1.3759	-4.0607
H	-0.8966	-3.7009	0.9174
H	0.8966	-3.7009	-0.9174
H	0.1825	-3.4065	2.0619
H	-0.1825	-3.4065	-2.0619
C	-0.1296	-0.6977	-2.8517
C	0.1296	-0.6977	2.8517
C	-1.0070	-0.4921	-3.9873
C	1.0070	-0.4921	3.9873
C	-2.0751	0.2448	-3.5462
C	2.0751	0.2448	3.5462
C	-1.9004	0.4287	-2.1107
C	1.9004	0.4287	2.1107
C	-2.8180	0.4824	0.1381
C	2.8180	0.4824	-0.1381
C	-3.9313	0.4181	1.0692
C	3.9313	0.4181	-1.0692
C	-3.5165	-0.3257	2.1426
C	3.5165	-0.3257	-2.1426
C	-2.1160	-0.6366	1.9277
C	2.1160	-0.6366	-1.9277
C	-1.2118	-1.1519	2.8751
C	1.2118	-1.1519	-2.8751
C	-0.8277	-0.9090	-5.4281
C	0.8277	-0.9090	5.4281
C	-1.4590	-2.2626	-5.7386
C	-2.8346	0.9371	-1.1931
C	2.8346	0.9371	1.1931
C	1.4590	-2.2626	5.7386
C	-6.2275	0.0027	0.0942
C	6.2275	0.0027	-0.0942
C	-3.2339	0.6594	-4.4169
C	3.2339	0.6594	4.4169
C	-4.3454	-0.5700	3.3721
C	4.3454	-0.5700	-3.3721
C	-3.0225	1.9888	-5.1320
C	-4.1395	0.5036	4.4274
C	4.1395	0.5036	-4.4274
C	-3.7758	2.0470	-1.5967
C	3.7758	2.0470	1.5967
C	-1.6808	-2.1339	3.9304
C	1.6808	-2.1339	-3.9304
C	-3.4599	3.3242	-0.7984
C	3.4599	3.3242	0.7984
C	-2.3595	-3.3763	3.3248
C	2.3595	-3.3763	-3.3248
C	3.0225	1.9888	5.1320
C	-4.3528	4.5181	-1.1285
C	4.3528	4.5181	1.1285
C	-1.4373	-4.3916	2.7257
C	1.4373	-4.3916	-2.7257
C	-4.2374	4.9993	-2.5329
C	4.2374	4.9993	2.5329
*