! UKS B3LYP ma-def2-SVP OPT NumFreq
%basis

end 

%scf
  maxiter 200
end

%pal 
	nprocs 16
end
* xyz 0 1
Zn	-0.1836	0.0871	0.0529
H	1.9639	2.4338	3.0473
H	-0.9352	-3.0067	3.0413
H	-2.2065	-2.3281	-2.9643
H	0.8679	3.0189	-3.0091
H	2.6934	5.6202	-1.0530
H	2.3629	4.7432	-2.3482
H	0.1406	5.4714	-2.3296
H	0.3722	6.2436	-0.9474
H	2.9328	4.2969	2.4293
H	2.0324	6.4292	2.7568
H	1.2782	6.3626	1.3470
H	0.8173	5.4091	2.5468
H	1.7211	1.7509	5.3003
H	1.6536	0.3794	6.1234
H	-0.0460	-1.3831	6.1196
H	-0.4956	-2.5562	5.1326
H	1.2399	-3.2986	6.5240
H	1.7379	-3.3057	5.0036
H	2.1909	-2.1283	5.9862
H	-2.3751	-4.6757	2.4753
H	-3.0754	-5.3955	1.2299
H	-1.3567	-6.7797	2.0585
H	-0.9633	-6.3022	0.5841
H	-0.2854	-5.6094	1.8578
H	-3.5397	-5.1574	-1.0063
C	3.4285	0.6081	5.0921
H	-3.5419	-4.0452	-2.1538
H	-2.5684	-6.0614	-2.9342
H	-1.5017	-4.8698	-2.9941
H	-1.4320	-5.9466	-1.8123
H	-2.5010	-1.3831	-5.0434
H	-1.7501	-0.4069	-6.0672
H	1.0871	6.7607	-2.2828
H	-1.0712	-2.6539	-6.4303
H	0.1856	-1.7769	-5.9672
H	-0.5440	-2.7432	-4.9219
H	0.8915	2.1178	-5.2436
H	-0.0786	1.2309	-6.1542
H	-0.6867	3.4978	-6.3219
H	-1.8850	2.6831	-5.6421
H	-0.9082	3.5729	-4.7402
C	1.0140	2.6851	-1.0305
C	1.6727	3.9005	-0.6128
C	1.9313	3.7664	0.7236
C	1.4142	2.4732	1.1179
C	1.5079	1.9175	2.3933
C	1.0084	0.6911	2.8104
C	1.1377	0.1561	4.1505
C	0.4598	-1.0212	4.1665
C	-0.0415	-1.2289	2.8158
C	-0.7531	-2.3441	2.3854
C	-1.2274	-2.5973	1.1014
C	-1.9441	-3.7789	0.6875
C	-2.2447	-3.6260	-0.6388
C	-1.6872	-2.3400	-1.0248
C	-1.7243	-1.8265	-2.3172
C	-1.1251	-0.6483	-2.7547
C	-1.0757	-0.2169	-4.1389
C	-0.3866	0.9535	-4.1539
C	-0.0359	1.2432	-2.7727
C	0.6390	2.3816	-2.3416
C	1.9931	5.0757	-1.4916
C	0.7903	5.9678	-1.7897
C	2.5641	4.7688	1.6415
C	1.5862	5.8379	2.1149
C	1.9301	0.7838	5.2621
C	0.2418	-1.9308	5.3475
C	1.4603	-2.7375	5.7510
C	-2.2368	-4.9727	1.5419
C	-1.1094	-6.0095	1.5074
C	-2.9585	-4.5682	-1.5508
C	-2.0323	-5.4399	-2.3986
C	-1.6186	-1.0081	-5.2917
C	-0.6777	-2.1479	-5.6878
C	-0.0393	1.7940	-5.3420
C	-0.9621	2.9943	-5.5280
N	0.8447	1.8454	0.0393
N	-0.4817	0.2474	-1.9472
N	-1.0834	-1.7418	0.0408
N	0.3036	-0.1702	2.0168
H	3.3184	5.2065	1.1715
H	3.8939	1.0241	5.8471
H	3.6444	-0.3474	5.0625
H	3.7141	1.0340	4.2567
*