! UKS B3LYP ma-def2-SVP OPT NumFreq
%basis
NewGTO Sn "ma-def2-TZVP" end
end 

%scf
  maxiter 200
end

%pal 
	nprocs 16
end
* xyz 0 1
H	-3.1357	-3.6759	-1.8520
Cl	1.3016	0.0715	-2.0441
H	-4.2159	-1.5854	-2.5113
Sn	0.0000	0.0000	0.0000
H	3.1357	3.6759	1.8520
H	4.2159	1.5854	2.5113
C	-2.9191	0.8121	-1.7170
C	-2.1309	1.8655	-1.2147
C	-1.9449	-6.8466	0.2479
H	-0.1758	-5.1227	-2.3425
C	-1.6614	-5.4728	0.3932
C	-2.4124	3.2706	-1.4250
H	-0.6748	-7.4128	-2.4594
C	-1.4388	3.9932	-0.8072
H	0.1758	5.1227	2.3425
C	-0.4933	3.0486	-0.2570
H	0.6748	7.4128	2.4594
C	-1.5667	-2.4794	-1.0071
C	-4.1776	1.1399	-2.4762
C	-2.8023	-2.8012	-1.6859
Cl	-1.3016	-0.0715	2.0441
C	-5.3017	1.4945	-1.7287
H	3.1470	-3.6252	1.9091
C	-3.3934	-1.6584	-2.0389
C	1.5667	2.4794	1.0071
H	1.3892	-4.9394	0.7488
C	-6.4783	1.8700	-2.3945
C	2.8023	2.8012	1.6859
C	-2.6081	-0.5826	-1.6041
C	-6.5620	1.8133	-3.7117
H	5.2705	-1.4811	0.7800
C	3.3934	1.6584	2.0389
C	-5.4605	1.4364	-4.4385
H	7.2240	-2.1709	1.8896
C	2.6081	0.5826	1.6041
C	-4.2782	1.1205	-3.8026
H	5.5115	-1.3932	5.3859
C	-7.8108	2.1784	-4.3503
H	3.5184	-0.8836	4.3230
C	-0.6807	-3.3644	-0.4179
C	0.6807	3.3644	0.4179
N	-0.9577	1.7716	-0.5723
N	-8.7748	2.4421	-4.8577
C	2.9191	-0.8121	1.7170
C	2.1309	-1.8655	1.2147
C	-0.9818	-4.8127	-0.5853
C	2.4124	-3.2706	1.4250
C	-0.6436	-5.5324	-1.6249
C	1.4388	-3.9932	0.8072
C	-0.9640	-6.9211	-1.7001
C	0.9818	4.8127	0.5853
C	0.4933	-3.0486	0.2570
C	0.6436	5.5324	1.6249
C	0.9640	6.9211	1.7001
C	4.1776	-1.1399	2.4762
N	-1.4950	-1.1011	-0.9604
C	5.3017	-1.4945	1.7287
C	6.4783	-1.8700	2.3945
N	1.4950	1.1011	0.9604
C	6.5620	-1.8133	3.7117
H	2.3985	7.2891	-0.9565
N	-1.6245	-7.5365	-0.7904
C	5.4605	-1.4364	4.4385
H	1.9421	5.0094	-1.1719
C	4.2782	-1.1205	3.8026
N	1.6245	7.5365	0.7904
C	7.8108	-2.1784	4.3503
N	0.9577	-1.7716	0.5723
N	8.7748	-2.4421	4.8577
H	-2.3985	-7.2891	0.9565
H	-1.9421	-5.0094	1.1719
H	-3.1470	3.6252	-1.9091
H	-1.3892	4.9394	-0.7488
H	-5.2705	1.4811	-0.7800
C	1.9449	6.8466	-0.2479
H	-7.2240	2.1709	-1.8896
C	1.6614	5.4728	-0.3932
H	-5.5115	1.3932	-5.3859
H	-3.5184	0.8836	-4.3230
*