! UKS B3LYP ma-def2-SVP OPT NumFreq
%basis

end 

%scf
  maxiter 200
end

%pal 
	nprocs 16
end
* xyz 0 1
C	-2.3118	-3.2896	-4.1147
H	0.4322	0.7693	5.6243
C	-4.4340	-2.8866	-1.8777
H	0.7661	1.8252	9.8977
H	-0.5607	2.5819	9.4365
H	0.8578	3.2482	9.1623
H	-2.4304	6.9413	4.8700
H	-2.8322	5.5259	4.2438
H	-1.3801	6.1456	3.9956
H	-3.9312	0.5493	5.0372
H	-2.9931	1.8164	4.9855
H	-2.4213	0.4488	5.5042
H	1.5945	3.9244	4.2764
H	3.1552	3.7623	4.0726
H	2.3433	2.7215	4.9040
N	1.4184	-0.1128	-1.4742
N	-1.1919	-1.1253	-1.2137
O	-0.4285	-1.7082	-7.9364
O	1.6289	-5.4291	-5.8162
H	-5.0538	-2.2073	-1.4916
H	3.8837	4.8408	1.4809
H	-4.7293	-3.0571	-2.8289
H	-4.0355	-1.5323	0.3791
H	-6.2519	-4.8873	-2.0536
H	-4.2640	-3.9961	-0.1427
C	2.4742	1.5024	0.8765
C	3.0468	2.3123	1.9213
C	2.0959	2.4664	2.8824
C	0.9260	1.6861	2.4432
C	-0.2799	1.5024	3.1554
C	-1.3706	0.7296	2.7120
C	-2.6174	0.4601	3.4458
C	-0.4068	2.2122	4.4616
H	-3.9689	-2.8748	2.5144
C	-0.9952	3.4977	4.4776
C	-1.0926	4.1718	5.6779
H	-3.2776	-2.1998	4.7307
C	-0.6403	3.6102	6.8667
H	-4.6361	-4.7340	4.7127
C	-0.0730	2.3467	6.8368
H	-3.1299	-4.5266	4.1635
C	0.0395	1.6490	5.6318
H	-3.9842	-4.2010	6.8908
C	0.3705	2.3871	9.1898
H	-2.4866	-3.8591	6.3767
C	-2.1065	6.0526	4.6353
H	-2.5482	-6.0161	7.3959
C	-3.0176	0.8560	4.8363
H	-3.6419	-6.5026	6.3336
C	2.3118	3.2896	4.1147
H	-2.1505	-6.1733	5.8553
C	-2.6491	-0.4998	1.4002
C	4.4340	2.8866	1.8777
C	-3.1279	-1.2016	0.3058
C	-3.3967	-0.2970	2.6166
N	-1.4184	0.1128	1.4742
N	1.1919	1.1253	1.2137
O	0.4285	1.7082	7.9364
O	-1.6289	5.4291	5.8162
C	-4.5409	-4.1796	-1.0865
C	-4.1016	-2.7252	4.5753
C	-3.8016	-4.1997	4.8338
C	-3.2736	-4.4549	6.2240
C	-2.8730	-5.9068	6.4671
H	-5.9183	-5.6956	-0.6861
H	-6.7060	-3.9043	0.5954
H	-7.0433	-3.0684	-0.7161
H	-8.2330	-5.5636	-0.1391
H	-8.8179	-4.7905	-1.3465
H	-10.2191	-4.4134	0.5162
H	-8.9138	-4.3267	1.5073
H	-9.2450	-3.0659	0.5426
H	-5.3039	-0.8058	2.0374
H	-5.2002	-0.4840	3.6293
H	-5.4896	-2.8924	3.0919
H	-4.7904	-2.4022	5.2318
H	5.9183	5.6956	0.6861
H	6.7060	3.9043	-0.5954
H	7.0433	3.0684	0.7161
H	8.2330	5.5636	0.1391
H	8.8179	4.7905	1.3465
H	10.2191	4.4134	-0.5162
H	8.9138	4.3267	-1.5073
H	9.2450	3.0659	-0.5426
H	5.3039	0.8058	-2.0374
C	-5.9498	-4.7868	-1.1009
H	5.2002	0.4840	-3.6293
C	-6.9684	-3.9986	-0.3445
H	5.4896	2.8924	-3.0919
C	-8.3689	-4.6146	-0.3737
C	-9.2683	-4.0753	0.6176
H	4.7904	2.4022	-5.2318
C	-4.7415	-0.9340	2.8639
C	-4.6094	-2.4462	3.1807
H	4.0355	1.5323	-0.3791
C	5.9498	4.7868	1.1009
C	6.9684	3.9986	0.3445
C	8.3689	4.6146	0.3737
C	9.2683	4.0753	-0.6176
C	4.7415	0.9340	-2.8639
C	4.6094	2.4462	-3.1807
H	4.2640	3.9961	0.1427
H	1.3191	-3.8980	-3.6527
H	0.7304	-4.1055	-7.6878
H	-0.4322	-0.7693	-5.6243
H	-0.7661	-1.8252	-9.8977
H	0.5607	-2.5819	-9.4365
H	-0.8578	-3.2482	-9.1623
H	2.4304	-6.9413	-4.8700
H	2.8322	-5.5259	-4.2438
H	1.3801	-6.1456	-3.9956
H	3.9312	-0.5493	-5.0372
H	2.9931	-1.8164	-4.9855
H	3.9689	2.8748	-2.5144
H	2.4213	-0.4488	-5.5042
H	-1.5945	-3.9244	-4.2764
H	5.0538	2.2073	1.4916
H	-3.1552	-3.7623	-4.0726
H	4.7293	3.0571	2.8289
H	-2.3433	-2.7215	-4.9040
H	3.2776	2.1998	-4.7307
H	4.6361	4.7340	-4.7127
H	3.1299	4.5266	-4.1635
H	3.9842	4.2010	-6.8908
H	2.4866	3.8591	-6.3767
H	6.2519	4.8873	2.0536
H	2.5482	6.0161	-7.3959
H	-3.8837	-4.8408	-1.4809
H	3.6419	6.5026	-6.3336
H	2.1505	6.1733	-5.8553
C	2.6491	0.4998	-1.4002
C	3.1279	1.2016	-0.3058
C	3.3967	0.2970	-2.6166
C	4.5409	4.1796	1.0865
C	-2.4742	-1.5024	-0.8765
C	-3.0468	-2.3123	-1.9213
C	-2.0959	-2.4664	-2.8824
C	-0.9260	-1.6861	-2.4432
C	0.2799	-1.5024	-3.1554
C	1.3706	-0.7296	-2.7120
C	4.1016	2.7252	-4.5753
C	2.6174	-0.4601	-3.4458
C	3.8016	4.1997	-4.8338
C	3.2736	4.4549	-6.2240
C	0.4068	-2.2122	-4.4616
C	2.8730	5.9068	-6.4671
C	0.9952	-3.4977	-4.4776
C	1.0926	-4.1718	-5.6779
C	0.6403	-3.6102	-6.8667
C	0.0730	-2.3467	-6.8368
C	-0.0395	-1.6490	-5.6318
Zn	0.0000	0.0000	0.0000
C	-0.3705	-2.3871	-9.1898
C	2.1065	-6.0526	-4.6353
H	-1.3191	3.8980	3.6527
C	3.0176	-0.8560	-4.8363
H	-0.7304	4.1055	7.6878
*