! UKS B3LYP ma-def2-SVP OPT NumFreq
%basis

end 

%scf
  maxiter 200
end

%pal 
	nprocs 16
end
* xyz 0 1
C	3.9360	-2.4732	-1.6140
C	3.4188	-2.7790	-4.3256
C	5.0472	6.3933	-1.2440
C	-5.0758	0.9410	4.5476
H	1.5647	-4.4995	-1.5699
C	-7.5348	1.1897	3.3036
C	-4.6835	-2.2716	2.6580
C	-2.4240	-6.3461	1.8628
C	4.6790	-3.0915	-3.8406
C	4.8981	-2.9537	-2.5100
C	-3.4606	-7.2954	-0.5196
N	3.3377	0.6486	-2.3022
C	5.0296	1.8685	-3.4863
C	4.2648	-2.2296	-0.1716
C	-2.7462	-7.6920	1.7195
C	-3.2502	-8.1759	0.5070
H	4.7579	-0.0150	-4.2878
Zn	-1.0336	-0.8046	0.9102
H	-2.5840	-5.1095	-2.1856
C	1.8978	1.8970	-0.8235
H	-4.1619	-5.3598	-2.0943
C	-3.5614	-9.6696	0.3134
C	5.7901	3.0026	-3.6107
H	-0.2916	-5.6891	-0.5007
H	-3.4979	-4.1417	-1.2959
C	-1.4093	2.2146	1.1054
C	1.1374	3.8226	2.7635
H	0.3791	-1.4499	2.9446
C	-0.8680	4.0813	-1.8675
C	0.7845	4.5888	1.5321
N	0.4310	0.2336	-0.1858
C	6.1232	6.3059	-2.1179
C	0.1665	3.9721	0.4425
N	-0.4097	-2.5253	0.0157
C	-0.1732	2.5171	0.4960
H	-0.8767	-0.5561	4.3098
N	-2.7464	-1.7675	1.5337
C	-3.3664	2.5557	2.1793
H	0.6662	-0.1360	4.3870
C	5.5469	4.1754	-2.7588
H	-0.3814	0.7965	3.6123
C	0.6596	1.5896	-0.0976
C	5.7682	-3.5502	-4.7917
N	-1.9300	0.9763	1.3038
C	-2.3035	3.2059	1.6361
O	0.1086	-0.8283	2.6486
H	-4.5959	-4.2677	2.3069
H	-2.3582	-5.1834	3.5461
H	-1.7161	-6.6334	3.7619
H	-3.8266	-7.6214	-1.3337
H	-0.9074	-5.5127	2.9556
H	1.0365	-2.1472	-5.0011
H	6.4103	0.2370	-5.9270
H	0.3922	-2.7202	-3.6532
H	0.7473	-1.1643	-3.7713
H	-6.1804	-0.4553	0.9165
H	-7.5348	0.3966	0.8708
C	-0.1864	4.7030	-0.6740
H	-6.1322	1.1107	0.5873
C	0.6684	6.7058	0.3874
H	-3.8288	1.1947	6.1632
H	-3.4628	-0.0974	5.2940
H	-5.4703	-2.1590	3.1792
C	0.0722	6.0842	-0.6944
H	3.2435	-2.8630	-5.2546
C	1.0431	5.9632	1.4786
C	0.9050	8.2046	0.3606
C	-7.4186	1.5509	4.6232
C	-8.6284	2.0684	5.3964
H	4.5124	-1.2886	-0.0472
C	2.3121	0.6890	-1.4377
H	3.4846	-2.4379	0.3811
C	0.8700	-4.1081	-1.0566
H	5.0165	-2.8008	0.0929
C	-6.1935	1.4182	5.2263
H	-2.6256	-8.2884	2.4502
H	3.4670	5.3549	-0.5417
H	-2.8798	-10.2056	0.7684
C	6.9802	2.1020	-5.3538
H	-4.4425	-9.8712	0.6928
H	-3.5614	-9.8813	-0.6425
H	4.8981	7.1813	-0.7354
C	1.5560	-1.6969	-1.2267
N	2.5632	3.0312	-0.9353
H	1.7225	4.3687	3.3304
H	-1.6701	3.6025	-1.5747
H	0.3199	3.6008	3.2580
H	-1.1200	4.7853	-2.5021
H	1.6020	2.9976	2.5132
H	-0.2521	3.4546	-2.3037
H	6.7084	7.0503	-2.1825
H	-4.1115	2.9489	2.6155
H	5.7507	-3.1974	-2.1667
H	-2.1741	4.1469	1.6125
H	6.5199	-2.9235	-4.7523
C	1.4245	-0.3494	-0.9511
H	6.0728	-4.4441	-4.5334
H	5.4132	-3.5771	-5.7050
H	-0.1645	6.5949	-1.4597
C	0.7122	-2.7034	-0.7621
N	6.3840	5.2323	-2.8769
N	6.7836	3.1287	-4.5429
C	-0.1403	-4.7516	-0.4803
C	-3.3686	-5.0641	-1.5999
H	-3.0727	1.3627	4.7633
C	-3.7850	-1.2248	2.2187
C	-0.1403	-0.1293	3.8264
H	-8.3830	1.2619	2.8801
H	1.4836	6.3883	2.2061
H	1.8189	8.3978	0.6566
H	0.7823	8.5373	-0.5527
C	-3.9910	0.1379	2.4328
H	0.2673	8.6482	0.9590
C	-3.1406	1.1611	1.9620
C	-2.6103	-5.4959	0.7810
C	-4.2014	-3.4108	2.1982
C	-2.1522	-4.0644	0.8535
H	-9.4393	1.6299	5.0641
H	-8.5166	1.8702	6.3490
H	-8.7073	3.0362	5.2720
C	-1.7972	-5.8790	3.1430
C	-6.5858	0.4168	1.1101
C	-0.9600	-3.7754	0.1842
C	1.0234	-2.0699	-4.0248
C	4.2122	5.3197	-1.1306
C	2.4085	-2.3455	-3.4800
C	-6.4434	0.7175	2.5635
H	-6.1059	1.6618	6.1396
C	3.9711	1.8130	-2.4785
C	6.2394	0.9343	-5.3050
C	-3.7433	0.8419	5.2546
C	-3.1582	-5.9513	-0.4204
C	5.2619	0.7881	-4.3555
C	3.6248	2.9758	-1.7557
C	-2.9631	-3.1184	1.4991
C	4.4532	4.1704	-1.8849
C	2.6649	-2.1540	-2.1368
H	7.6683	2.1709	-6.0042
C	-5.1942	0.6100	3.2186
*