! UKS B3LYP ma-def2-SVP OPT NumFreq
%basis

end 

%scf
  maxiter 200
end

%pal 
	nprocs 16
end
* xyz 0 1
C	2.8230	-1.6582	1.1357
Fe	-5.9875	2.0049	-2.1281
H	-2.0257	3.7418	-2.8626
S	-10.7288	1.7585	-1.6963
S	-9.1103	4.1621	-2.2787
N	-0.3757	1.4627	-1.3806
C	4.0145	-2.4353	1.6181
C	4.9186	-3.1971	0.8190
C	5.7473	-3.9526	1.6800
C	5.3514	-3.7037	3.0086
H	-0.3609	-3.8573	3.3624
H	-4.6166	-0.9586	1.9992
C	4.2999	-2.7629	2.9641
H	-5.0881	0.7263	0.3340
C	6.3863	-0.0140	1.9942
H	-6.4637	4.5747	-1.3954
H	-2.9390	-4.3017	2.1699
C	7.2942	-0.7148	1.1653
H	-5.7307	4.1214	-3.8226
C	7.9940	-1.6354	1.9992
H	-4.3220	-5.3518	3.7162
N	-1.9925	-0.0597	0.4330
H	-3.8358	2.3883	-3.7534
H	0.3609	3.8573	-3.3624
H	-4.2336	-2.1725	6.0420
C	7.5299	-1.4640	3.3204
H	-5.7510	-0.6818	-1.6924
H	4.6166	0.9586	-1.9992
H	-2.9022	-1.0805	4.5278
C	6.5502	-0.4507	3.3080
H	-7.4010	0.6069	-0.1856
H	5.0881	-0.7263	-0.3340
C	9.0860	-2.5165	1.4623
H	-5.4858	-4.0326	6.8041
H	-7.8503	1.9553	-4.1171
H	2.9390	4.3017	-2.1699
H	-4.8965	-5.4254	6.3315
C	11.2405	-2.7324	2.8800
H	-6.0549	0.1130	-4.0973
N	1.9925	0.0597	-0.4330
H	4.3220	5.3518	-3.7162
H	-6.1635	-4.8134	5.6041
C	10.8059	-4.1151	2.9369
H	-8.9368	2.6486	-0.4924
H	4.2336	2.1725	-6.0420
H	-4.9794	3.1717	0.1682
Zn	0.0000	0.0000	0.0000
H	-10.9864	2.3134	-3.7286
H	2.9022	1.0805	-4.5278
Fe	5.9875	-2.0049	2.1281
H	-12.2184	2.7362	-2.8478
H	2.0257	-3.7418	2.8626
H	5.4858	4.0326	-6.8041
H	-11.3970	4.6814	-2.3975
H	4.8965	5.4254	-6.3315
H	-10.8225	4.4389	-3.8622
H	6.1635	4.8134	-5.6041
S	10.7288	-1.7585	1.6963
H	4.9794	-3.1717	-0.1682
S	9.1103	-4.1621	2.2787
N	0.3757	-1.4627	1.3806
C	-1.5763	2.0480	-1.6429
C	-1.3609	3.1616	-2.5361
H	6.4637	-4.5747	1.3954
C	-0.0645	3.2263	-2.8132
H	5.7307	-4.1214	3.8226
H	3.8358	-2.3883	3.7534
H	5.7510	0.6818	1.6924
H	7.4010	-0.6069	0.1856
H	7.8503	-1.9553	4.1171
H	6.0549	-0.1130	4.0973
C	-2.9998	0.7148	-0.1014
H	8.9368	-2.6486	0.4924
C	-2.8230	1.6582	-1.1357
H	10.9864	-2.3134	3.7286
H	12.2184	-2.7362	2.8478
C	-0.5653	-2.1407	2.1031
H	11.3970	-4.6814	2.3975
C	-1.9225	-1.8157	2.1526
H	10.8225	-4.4389	3.8622
C	-2.5781	-0.8494	1.3880
C	-3.9868	-0.5574	1.4276
C	-4.2428	0.3619	0.5295
C	0.5653	2.1407	-2.1031
C	-4.0145	2.4353	-1.6181
C	1.9225	1.8157	-2.1526
C	-4.9186	3.1971	-0.8190
C	2.5781	0.8494	-1.3880
C	-2.7733	-2.5610	3.1843
C	-5.7473	3.9526	-1.6800
C	3.9868	0.5574	-1.4276
C	-3.1987	-3.8485	2.9517
C	-5.3514	3.7037	-3.0086
C	4.2428	-0.3619	-0.5295
C	-4.0218	-4.4782	3.8944
C	-4.2999	2.7629	-2.9641
C	1.5763	-2.0480	1.6429
C	-4.4030	-3.8827	5.0474
C	-6.3863	0.0140	-1.9942
C	1.3609	-3.1616	2.5361
C	-3.9776	-2.6169	5.2552
C	-7.2942	0.7148	-1.1653
C	2.7733	2.5610	-3.1843
C	0.0645	-3.2263	2.8132
C	-3.1766	-1.9604	4.3447
C	-7.9940	1.6354	-1.9992
C	3.1987	3.8485	-2.9517
C	-5.3219	-4.6052	6.0370
C	-7.5299	1.4640	-3.3204
C	4.0218	4.4782	-3.8944
C	-6.5502	0.4507	-3.3080
C	4.4030	3.8827	-5.0474
C	-9.0860	2.5165	-1.4623
C	3.9776	2.6169	-5.2552
C	-11.2405	2.7324	-2.8800
C	3.1766	1.9604	-4.3447
C	-10.8059	4.1151	-2.9369
C	5.3219	4.6052	-6.0370
C	2.9998	-0.7148	0.1014
*