! UKS B3LYP ma-def2-SVP OPT NumFreq
%basis

end 

%scf
  maxiter 200
end

%pal 
	nprocs 16
end
* xyz 0 1
Zn	0.0000	0.0000	0.0000
H	1.0061	8.5787	0.4523
C	-3.0066	-3.7630	0.8323
C	3.0066	3.7630	0.8323
H	-6.1040	-6.4880	2.7504
H	6.1040	6.4880	2.7504
C	-3.7630	3.0066	-0.8323
C	3.7630	-3.0066	-0.8323
H	-6.4880	6.1040	-2.7504
H	6.4880	-6.1040	-2.7504
H	1.9086	8.7104	2.5569
H	2.4130	-6.1545	-0.7396
C	-3.2566	-4.8998	0.0856
C	3.2566	4.8998	0.0856
H	-2.4130	6.1545	-0.7396
C	-4.8998	3.2566	-0.0856
H	-6.1545	-2.4130	0.7396
H	6.1545	2.4130	0.7396
C	4.8998	-3.2566	-0.0856
C	-4.1675	-5.8294	0.4839
C	4.1675	5.8294	0.4839
H	4.0862	-7.6006	-0.0255
C	-5.8294	4.1675	-0.4839
C	5.8294	-4.1675	-0.4839
H	-7.6006	-4.0862	0.0255
H	7.6006	4.0862	0.0255
C	-4.8401	-5.7055	1.6788
C	4.8401	5.7055	1.6788
H	5.0419	-7.3036	2.1331
C	-5.7055	4.8401	-1.6788
C	5.7055	-4.8401	-1.6788
H	-7.3036	-5.0419	-2.1331
H	7.3036	5.0419	-2.1331
C	-4.5878	-4.5794	2.4978
C	4.5878	4.5794	2.4978
H	-4.3188	5.5295	3.4523
H	4.3188	-5.5295	3.4523
C	-4.5794	4.5878	-2.4978
C	4.5794	-4.5878	-2.4978
H	-5.5295	-4.3188	-3.4523
H	5.5295	4.3188	-3.4523
C	-3.6961	-3.6294	2.0669
C	3.6961	3.6294	2.0669
H	-2.6877	4.0778	2.6496
H	2.6877	-4.0778	2.6496
C	-3.6294	3.6961	-2.0669
C	3.6294	-3.6961	-2.0669
H	-4.0778	-2.6877	-2.6496
H	4.0778	2.6877	-2.6496
N	0.2570	-2.0069	0.0693
N	-0.2570	2.0069	0.0693
H	0.1205	6.5693	-0.3443
H	-0.1205	-6.5693	-0.3443
N	-2.0069	-0.2570	-0.0693
N	2.0069	0.2570	-0.0693
H	-6.5693	0.1205	0.3443
H	6.5693	-0.1205	0.3443
O	-5.7515	-6.6744	2.0109
H	-1.0061	-8.5787	0.4523
O	5.7515	6.6744	2.0109
O	-6.6744	5.7515	-2.0109
O	6.6744	-5.7515	-2.0109
H	-8.5787	1.0061	-0.4523
H	8.5787	-1.0061	-0.4523
H	-1.9086	-8.7104	2.5569
H	-8.7104	1.9086	-2.5569
H	8.7104	-1.9086	-2.5569
H	-6.7963	1.8777	-3.9748
H	6.7963	-1.8777	-3.9748
H	-1.0482	-4.7840	3.1558
H	1.0482	4.7840	3.1558
H	-4.7840	1.0482	-3.1558
H	4.7840	-1.0482	-3.1558
H	-2.7802	-5.0335	-0.7263
H	2.7802	5.0335	-0.7263
H	-5.0335	2.7802	0.7263
H	5.0335	-2.7802	0.7263
H	-4.3384	-6.5805	-0.0733
H	4.3384	6.5805	-0.0733
H	-6.5805	4.3384	0.0733
H	6.5805	-4.3384	0.0733
H	-5.0306	-4.4813	3.3331
H	5.0306	4.4813	3.3331
H	-4.4813	5.0306	-3.3331
H	4.4813	-5.0306	-3.3331
H	-3.5369	-2.8642	2.6068
H	3.5369	2.8642	2.6068
H	-2.8642	3.5369	-2.6068
H	2.8642	-3.5369	-2.6068
C	1.4800	-2.6456	0.0295
C	-1.4800	2.6456	0.0295
C	-2.6456	-1.4800	-0.0295
C	2.6456	1.4800	-0.0295
C	1.3220	-4.0175	0.4625
C	-1.3220	4.0175	0.4625
C	-4.0175	-1.3220	-0.4625
C	4.0175	1.3220	-0.4625
C	-0.0020	-4.1703	0.7579
C	0.0020	4.1703	0.7579
H	-1.8777	-6.7963	3.9748
H	1.8777	6.7963	3.9748
C	-4.1703	0.0020	-0.7579
C	4.1703	-0.0020	-0.7579
C	-0.6693	-2.9388	0.4553
C	0.6693	2.9388	0.4553
C	-2.9388	0.6693	-0.4553
C	2.9388	-0.6693	-0.4553
C	-2.0389	-2.6860	0.4044
C	2.0389	2.6860	0.4044
C	-2.6860	2.0389	-0.4044
C	2.6860	-2.0389	-0.4044
C	2.3923	-4.9824	0.8730
C	-2.3923	4.9824	0.8730
C	-4.9824	-2.3923	-0.8730
C	4.9824	2.3923	-0.8730
C	1.0201	7.8052	1.0064
C	2.8110	-6.0205	0.1121
C	-2.8110	6.0205	0.1121
C	-6.0205	-2.8110	-0.1121
C	6.0205	2.8110	-0.1121
C	1.5414	7.8893	2.2472
C	3.7975	-6.8888	0.5368
C	-3.7975	6.8888	0.5368
C	-6.8888	-3.7975	-0.5368
C	6.8888	3.7975	-0.5368
C	4.3720	-6.7094	1.8163
C	-4.3720	6.7094	1.8163
C	-6.7094	-4.3720	-1.8163
C	6.7094	4.3720	-1.8163
C	3.9460	-5.6668	2.5884
C	-3.9460	5.6668	2.5884
C	-5.6668	-3.9460	-2.5884
C	5.6668	3.9460	-2.5884
C	2.9679	-4.8064	2.1086
C	-2.9679	4.8064	2.1086
C	-4.8064	-2.9679	-2.1086
C	4.8064	2.9679	-2.1086
C	-0.5482	-5.4502	1.3314
C	0.5482	5.4502	1.3314
C	-5.4502	0.5482	-1.3314
C	5.4502	-0.5482	-1.3314
H	-4.0862	7.6006	-0.0255
C	-0.5045	-6.6085	0.5246
C	0.5045	6.6085	0.5246
C	-6.6085	0.5045	-0.5246
C	6.6085	-0.5045	-0.5246
H	-5.0419	7.3036	2.1331
C	-1.0201	-7.8052	1.0064
C	-7.8052	1.0201	-1.0064
C	7.8052	-1.0201	-1.0064
C	-1.5414	-7.8893	2.2472
C	-7.8893	1.5414	-2.2472
C	7.8893	-1.5414	-2.2472
C	-1.5414	-6.7458	3.0876
C	1.5414	6.7458	3.0876
C	-6.7458	1.5414	-3.0876
C	6.7458	-1.5414	-3.0876
C	-1.0454	-5.5547	2.5966
C	1.0454	5.5547	2.5966
C	-5.5547	1.0454	-2.5966
C	5.5547	-1.0454	-2.5966
*