! UKS B3LYP ma-def2-SVP OPT NumFreq
%basis

end 

%scf
  maxiter 200
end

%pal 
	nprocs 16
end
* xyz 0 1
H	2.6662	1.4437	0.1670
H	3.5613	3.5804	0.0691
H	-0.2132	5.0421	-0.2777
H	-0.9898	2.8644	-0.2125
H	-5.2458	-0.7707	-2.5638
O	5.2075	-1.8152	0.3311
H	-2.5625	-0.3216	-5.1842
C	-0.7192	1.0086	2.7972
H	-4.0672	-0.4403	-4.6421
C	-1.6142	1.9648	3.4321
C	-2.6200	2.2022	2.5362
H	-3.2615	-2.6066	-5.0906
C	-2.3406	1.3698	1.3744
H	-3.4673	-2.4682	-3.5100
C	-3.1300	1.1947	0.2361
H	-1.9995	-2.3623	-4.1366
C	-2.7404	0.6929	-0.9996
C	-3.5743	0.3455	-2.1474
C	-2.7206	0.0552	-3.1626
C	-1.3746	0.2090	-2.6388
C	-0.1666	0.1321	-3.3039
C	1.1059	-0.0303	-2.7698
C	2.3850	-0.0587	-3.4524
H	4.8349	-1.7155	-4.5963
H	4.8815	-2.6787	-3.3197
H	3.8175	-3.5571	3.3493
H	4.4913	-3.2422	1.9292
H	3.4739	-5.3535	1.7942
H	2.6448	-4.3593	0.8542
C	0.3736	0.3507	3.3400
H	2.0798	-4.7533	2.2974
C	-1.5030	2.6469	4.7700
H	2.1633	-1.0899	5.3379
C	-2.4971	2.1074	5.8009
H	3.2331	-2.2084	4.9310
C	-3.6752	3.2711	2.6641
H	1.4469	-3.1814	6.1268
C	-3.4770	4.3973	1.6408
H	1.4915	-3.7774	4.6420
C	-5.0712	0.1351	-2.2044
H	0.4120	-2.6589	5.0228
C	-5.8488	1.1499	-3.0516
C	2.7336	0.5879	-4.7706
H	-0.7568	-2.0700	-1.8618
C	2.7048	2.1117	-4.6510
H	-1.4772	-4.2816	-1.8571
H	-1.3063	-4.2152	2.1915
H	-0.7724	-1.9641	2.0750
C	2.0804	2.1838	0.0611
C	2.6215	3.4533	0.0068
C	1.7709	4.5383	-0.1390
C	0.3961	4.3168	-0.2030
H	5.2174	-0.7679	-1.9297
C	-0.0540	3.0165	-0.1548
C	2.3006	5.8866	-0.2226
H	6.1843	-1.8567	-3.7467
C	3.2857	-0.5732	-2.5755
C	2.5477	-0.8313	-1.3436
C	2.9710	-1.4674	-0.1830
N	-1.1366	0.7176	1.5113
C	2.3883	-1.4260	1.0791
N	-1.4125	0.5034	-1.2900
C	2.8118	-2.1061	2.2884
C	2.1736	-1.4886	3.3198
C	1.2752	-0.5056	2.7161
N	-4.5398	1.6072	0.3552
N	-0.2278	0.0782	-4.7951
N	0.6044	0.5493	4.7889
N	0.7547	1.9514	-0.0306
N	2.7229	6.9409	-0.3149
C	-3.1225	-0.6456	-4.4338
C	-2.9469	-2.1559	-4.2785
O	-5.2169	1.0950	1.2197
O	-4.9452	2.4618	-0.4400
O	-0.4559	1.1055	-5.3896
C	4.7687	-0.6761	-2.8064
C	3.6277	-3.3700	2.3953
O	1.5608	1.2477	5.1117
C	2.8900	-4.5669	1.7800
C	2.3101	-1.8864	4.7699
O	-0.1577	-0.0042	5.5705
C	1.3284	-2.9724	5.1760
C	-0.8945	-2.5058	-1.0286
C	-1.3024	-3.8342	-1.0374
C	-1.4475	-4.4930	0.1706
C	-1.2234	-3.7859	1.3469
C	-0.8790	-2.4534	1.2673
Fe	0.0191	0.0763	0.0320
H	-1.6577	3.6171	4.6512
C	-1.8305	-5.8944	0.1867
H	-0.5840	2.5283	5.1172
H	-2.4130	2.6159	6.6336
N	1.2512	-0.3900	-1.4468
H	-2.3062	1.1612	5.9744
N	1.3772	-0.5311	1.3450
H	-3.4090	2.1978	5.4535
H	-3.6459	3.6510	3.5770
H	-4.5682	2.8644	2.5325
H	-4.1799	5.0703	1.7564
N	4.2373	-2.2217	-0.3001
H	-3.5255	4.0267	0.7340
H	-2.5994	4.8119	1.7782
H	-5.4264	0.1614	-1.2809
N	-0.6848	-1.8092	0.0946
H	-6.8010	0.9212	-3.0438
N	-2.1377	-6.9894	0.1436
H	-5.5157	1.1302	-3.9732
C	5.2068	-1.8356	-3.6968
H	-5.7254	2.0481	-2.6801
O	-0.0264	-1.0169	-5.3195
O	4.2362	-3.2122	-1.0159
H	2.0856	0.2983	-5.4609
H	3.6370	0.2955	-5.0542
H	2.9710	2.5113	-5.5063
H	3.3283	2.3955	-3.9504
H	1.7983	2.4040	-4.4203
H	5.0815	0.1698	-3.2155
*