! UKS B3LYP ma-def2-SVP OPT NumFreq
%basis

end 

%scf
  maxiter 200
end

%pal 
	nprocs 16
end
* xyz 0 1
Ni	-0.2062	0.1061	-0.0683
C	3.5438	-0.9422	-1.4880
C	2.9939	-2.1609	-1.3734
H	-4.9948	1.3927	-0.6798
C	1.7176	-2.0197	-0.7569
C	0.8644	-3.0609	-0.4524
C	4.3392	1.7385	-0.6996
C	5.3972	1.1531	-0.0148
C	6.7065	1.5041	-0.3257
C	6.9566	2.4404	-1.3219
C	4.5904	2.6748	-1.6954
C	4.7553	-0.7221	-2.2697
C	1.4444	-4.4414	-0.5879
H	-2.0900	-5.8426	0.3532
C	2.1563	-5.0034	0.4653
H	4.3101	3.7134	0.5842
H	-4.6879	-3.5996	-0.4637
H	3.6324	4.7895	1.5590
H	-3.9031	-4.9672	-0.1737
C	2.6212	-6.3101	0.3718
C	1.6635	-6.4927	-1.8305
H	-5.2674	-4.4116	1.7035
C	1.1986	-5.1860	-1.7356
H	-3.7284	-4.3715	2.1404
H	-4.5134	-3.0078	1.8491
H	5.1978	3.4842	2.7995
H	-4.2208	-1.8993	-2.8317
H	3.7276	3.2005	3.3647
H	-6.3437	-2.6206	-3.5009
H	6.0695	3.6655	-2.6875
H	3.8676	3.0749	-2.1645
H	-8.1601	-2.4250	-2.0400
H	-7.8542	-1.5095	0.0915
H	-5.7312	-0.7881	0.7607
H	-1.6266	-4.8960	2.5354
C	0.1004	2.8755	0.9967
N	1.4617	-0.6858	-0.5121
C	2.0398	2.0506	0.3011
O	5.5946	-1.5820	-2.4751
C	-0.4662	-2.8757	-0.1479
C	-1.4769	-3.8975	0.0560
C	-2.6784	-3.3096	-0.1073
C	-2.4394	-1.8863	-0.2961
C	-3.4003	-0.9189	-0.5168
C	-3.1278	0.4279	-0.3493
C	-4.0987	1.4704	-0.3753
C	-3.5175	2.5906	0.1097
C	-2.1708	2.2642	0.4296
H	-3.9328	3.4388	0.2187
H	1.8406	5.3982	2.5156
H	0.2719	5.4604	2.2000
H	-0.1323	3.7988	3.8732
H	1.4359	3.7289	4.1847
C	-1.2662	-5.3155	0.4962
C	-3.9905	-4.0192	0.1007
C	3.7099	3.8222	1.3632
C	-4.4142	-3.9467	1.5836
C	4.3220	3.0956	2.5924
C	-4.7759	-1.2764	-0.9722
C	-4.9586	-1.8203	-2.2384
C	-6.2187	-2.2476	-2.6366
C	-7.2990	-2.1324	-1.7680
C	-7.1163	-1.5885	-0.5018
C	5.8985	3.0257	-2.0067
C	-5.8557	-1.1598	-0.1035
C	-0.8934	-5.2974	2.0253
N	0.6777	1.7695	0.3481
N	-1.0920	-1.6221	-0.2375
N	-1.9015	0.9498	0.1131
H	-2.5412	4.0410	3.1339
H	-3.1581	7.9015	2.0641
H	-2.0227	7.5259	0.0526
H	-1.1451	5.4086	-0.4172
C	1.1665	3.7548	1.4868
C	2.3481	3.2666	1.0280
C	-1.2384	3.1721	0.9683
C	1.0078	4.8634	2.4854
C	0.7030	4.3117	3.8965
C	-1.7601	4.5254	1.3141
C	-2.4361	4.7481	2.5089
C	-2.9565	6.0069	2.7877
C	-2.8026	7.0416	1.8727
C	-2.1278	6.8188	0.6789
C	-1.6062	5.5601	0.3990
C	2.3742	-7.0548	-0.7763
H	0.6111	5.0576	4.5259
H	3.3873	-2.9780	-1.6560
H	-3.4176	6.1584	3.6040
H	4.4278	2.1425	2.3901
H	5.2262	0.5134	0.6660
H	7.4289	1.1026	0.1432
H	7.8517	2.6799	-1.5332
H	4.8983	0.1417	-2.6404
H	2.3245	-4.4945	1.2498
H	3.1068	-6.6947	1.0917
H	2.6933	-7.9470	-0.8405
H	1.4953	-7.0017	-2.6136
H	0.7118	-4.8014	-2.4558
H	-0.5338	-5.7287	-0.0280
H	-0.7442	-6.2156	2.3349
H	-0.0773	-4.7716	2.1573
C	2.9335	1.2671	-0.4294
C	2.6202	-0.0098	-0.8744
*