! UKS B3LYP ma-def2-SVP OPT NumFreq
%basis
NewGTO Pt "ma-def2-TZVP" end
end 

%scf
  maxiter 200
end

%pal 
	nprocs 16
end
* xyz 0 1
H	-0.0664	-3.7445	3.4956
C	-5.4581	-1.4164	3.7592
C	3.2569	-3.5022	2.9816
H	2.1953	-8.2996	4.4939
H	0.0664	3.7445	-3.4956
H	6.0321	1.2578	-4.5368
H	3.4445	-2.8531	2.2588
C	-3.2569	3.5022	-2.9816
H	2.4607	-9.8170	4.0599
H	-3.4445	2.8531	-2.2588
H	1.4828	1.9703	-4.4998
H	2.6511	-3.0579	3.6289
H	-3.2829	2.7290	2.8483
C	2.3742	-0.5943	-4.3043
H	3.2829	-2.7290	-2.8483
H	-2.6511	3.0579	-3.6289
H	-2.9858	4.0820	0.8117
H	5.1696	-4.1859	3.0334
C	1.5419	-0.9722	-5.3855
H	-1.5780	1.4886	7.3510
H	2.9858	-4.0820	-0.8117
H	-5.1696	4.1859	-3.0334
H	0.7933	-7.5928	0.7924
C	2.1316	-1.2485	-6.6164
H	-5.2186	0.6491	5.8995
H	-4.3705	4.4513	-4.3946
H	3.5281	-6.1475	3.3756
C	3.5050	-1.1857	-6.7986
H	0.3923	1.0530	6.1276
H	-3.5281	6.1475	-3.3756
H	-4.9042	2.9829	-4.0525
H	-0.2106	-6.1937	-0.8161
C	4.2828	-0.7443	-5.7618
H	-2.3223	9.1189	-1.7952
H	0.3202	0.4270	4.6583
H	0.2106	6.1937	0.8161
H	0.0779	-4.6215	-0.8354
C	3.7500	-0.4298	-4.4998
H	-3.6002	8.5563	-2.5728
H	0.0779	2.5271	3.7148
H	-0.0779	4.6215	0.8354
H	-1.8434	-5.8533	0.8976
C	0.0306	-1.1479	-5.2389
H	-2.1953	8.2996	-4.4939
H	1.3357	2.5906	4.7012
H	1.8434	5.8533	-0.8976
H	-2.2213	-5.0426	-0.4295
C	-0.3635	-2.4838	-4.6509
H	-2.4607	9.8170	-4.0599
H	-0.0692	3.2021	5.1574
H	2.2213	5.0426	0.4295
H	-1.5751	-4.2782	0.8191
C	4.0993	-1.5174	-8.1627
H	-1.0731	9.1131	-3.6940
H	-3.8079	2.4290	8.4160
H	1.5751	4.2782	-0.8191
H	2.3223	-9.1189	1.7952
C	3.7503	-0.6289	-9.2114
C	-4.6486	-0.0837	3.4141
H	-5.0859	1.5318	8.0783
Pt	0.0000	0.0000	0.0000
H	3.6002	-8.5563	2.5728
C	4.6486	0.0837	-3.4141
C	0.2291	-2.3938	1.8592
H	-3.9378	-0.2914	8.9329
C	-0.2291	2.3938	-1.8592
C	5.4581	1.4164	-3.7592
C	-0.2573	-2.8940	3.1164
C	4.5338	-3.8062	3.6748
H	-4.2782	0.8424	10.0083
C	0.2573	2.8940	-3.1164
C	-4.5338	3.8062	-3.6748
C	-1.0385	-1.9285	3.6625
H	-2.7983	0.7212	9.4143
H	1.0731	-9.1131	3.6940
C	1.0385	1.9285	-3.6625
C	-1.0665	-0.8302	2.7376
C	1.0665	0.8302	-2.7376
N	-0.2919	-1.1372	1.6314
C	-1.7906	0.3369	2.9255
H	1.5780	-1.4886	-7.3510
N	0.2919	1.1372	-1.6314
C	1.7906	-0.3369	-2.9255
N	-1.2589	1.3792	0.7533
C	-1.9063	1.3354	1.9695
H	-4.8263	-2.1376	3.9592
H	5.2186	-0.6491	-5.8995
N	1.2589	-1.3792	-0.7533
C	1.9063	-1.3354	-1.9695
C	-2.7270	2.5144	2.1092
H	-0.3923	-1.0530	-6.1276
C	2.0364	-8.9741	3.7992
C	2.7270	-2.5144	-2.1092
C	-2.5597	3.2538	1.0013
H	-6.0321	-1.2578	4.5368
H	-0.3202	-0.4270	-4.6583
C	2.5597	-3.2538	-1.0013
H	-1.4828	-1.9703	4.4998
C	-1.6247	2.5712	0.1561
H	-0.0779	-2.5271	-3.7148
C	-2.3742	0.5943	4.3043
C	1.6247	-2.5712	-0.1561
C	1.1173	-3.0743	1.0313
H	-1.3357	-2.5906	-4.7012
C	-1.5419	0.9722	5.3855
C	-1.1173	3.0743	-1.0313
C	1.5134	-4.4691	1.4274
H	0.0692	-3.2021	-5.1574
C	-2.1316	1.2485	6.6164
C	-1.5134	4.4691	-1.4274
H	4.3705	-4.4513	4.3946
C	0.8755	-5.5605	0.8129
H	3.8079	-2.4290	-8.4160
C	-3.5050	1.1857	6.7986
C	-0.8755	5.5605	-0.8129
C	1.2338	-6.8543	1.1963
H	4.9042	-2.9829	4.0525
H	5.0859	-1.5318	-8.0783
C	-4.2828	0.7443	5.7618
C	-1.2338	6.8543	-1.1963
C	2.2124	-7.0926	2.1468
C	-2.6116	8.5067	-2.5165
H	3.9378	0.2914	-8.9329
C	-3.7500	0.4298	4.4998
C	-2.2124	7.0926	-2.1468
C	2.8502	-5.9967	2.7264
C	-2.0364	8.9741	-3.7992
H	4.2782	-0.8424	-10.0083
C	-0.0306	1.1479	5.2389
C	-2.8502	5.9967	-2.7264
C	2.5205	-4.6849	2.3789
H	2.7983	-0.7212	-9.4143
H	-4.0993	-0.2510	2.6083
C	0.3635	2.4838	4.6509
C	-2.5205	4.6849	-2.3789
C	-0.1820	-5.3793	-0.2537
H	4.0993	0.2510	-2.6083
H	-5.2994	0.6289	3.1875
C	-4.0993	1.5174	8.1627
C	0.1820	5.3793	0.2537
C	-1.5815	-5.1148	0.3081
H	5.2994	-0.6289	-3.1875
C	-3.7503	0.6289	9.2114
C	1.5815	5.1148	-0.3081
C	2.6116	-8.5067	2.5165
H	4.8263	2.1376	-3.9592
H	-6.0119	-1.6703	2.9905
H	-0.7933	7.5928	-0.7924
H	6.0119	1.6703	-2.9905
*