! UKS B3LYP ma-def2-SVP OPT NumFreq
%basis

end 

%scf
  maxiter 200
end

%pal 
	nprocs 16
end
* xyz 0 1
Zn	-0.0022	0.0017	0.0009
C	4.4458	9.4687	0.7766
C	4.8652	10.8874	0.8179
Si	-2.6768	-9.2484	-0.1566
C	5.6724	11.4936	0.1373
C	1.5626	4.6804	0.1530
Si	-9.2477	2.7540	-0.1303
C	-2.0873	-10.0441	1.3982
H	-3.2927	3.9279	0.0664
C	1.5819	5.3747	1.2920
C	-1.6097	-10.0564	-1.4896
C	-4.5440	-9.4625	-0.4470
C	1.9432	6.7229	1.3195
C	2.3010	7.3891	0.1569
C	-4.9405	-10.8812	-0.6162
C	2.3080	6.6630	-0.9801
C	-5.6243	-11.6584	-0.0811
N	-0.9135	1.8254	0.0881
H	3.2738	-3.9093	-0.2109
C	1.9855	5.3148	-0.9899
N	1.8304	0.9001	-0.0358
H	1.0938	-5.0037	-0.1854
C	1.5626	10.0573	1.4336
N	0.8946	-1.8297	-0.0122
H	-3.9201	-3.2890	-0.0654
C	2.4613	9.9798	-1.4443
N	-1.8194	-0.8781	-0.0103
H	-5.0110	-1.0984	0.0094
H	5.0432	-1.2605	-2.0306
H	7.2708	-1.9320	-1.9873
H	6.9783	-2.6898	1.8644
H	4.7383	-2.1628	1.8172
H	-1.6062	-4.8962	-2.0699
H	-2.1507	-7.1256	-2.0974
H	-2.3710	-7.1326	1.8526
H	-1.7401	-4.9262	1.8763
C	-9.4433	4.6081	-0.4352
H	-4.9123	1.9294	1.9431
C	-10.8356	5.0716	-0.6024
H	-7.1082	2.6079	1.8507
C	-11.5564	5.7431	-0.0004
H	-7.1734	1.9963	-2.0561
H	-4.9264	1.4024	-1.9755
Si	2.6933	9.2364	0.2181
H	-9.9156	0.8949	-1.4227
H	9.3909	-2.1769	2.3031
H	-9.6037	2.1021	-2.3709
H	9.7804	-0.9415	1.4199
H	-10.9625	2.0492	-1.5919
H	10.8096	-2.1047	1.6402
H	-10.9149	2.6766	1.5005
H	10.9524	-2.7902	-1.5191
H	-9.5050	2.6625	2.1871
H	10.3161	-1.3574	-1.4699
H	-1.0827	4.9958	0.1432
H	-10.0760	1.3531	1.5418
H	9.5918	-2.5100	-2.2489
H	8.7159	-5.0055	0.7963
H	9.2288	-5.0742	-0.6909
H	10.8184	-4.7288	1.5576
H	11.8494	-5.7228	-0.5414
H	12.4521	-5.4760	0.9300
H	4.5480	9.0863	1.6618
H	1.3493	4.9500	2.0867
H	5.0344	8.9858	0.1766
H	1.9432	7.1812	2.1281
H	4.4440	11.3985	1.4710
H	2.5354	7.0789	-1.7807
H	6.1358	11.0530	-0.5375
H	2.0578	4.8319	-1.7827
H	5.8239	12.3977	0.2907
H	1.6612	9.6414	2.2933
H	0.6549	9.9692	1.1366
H	1.7881	10.9896	1.5005
H	2.6675	10.9173	-1.4070
H	1.5502	9.8635	-1.7237
H	3.0447	9.5480	-2.0719
H	-2.3710	-10.9552	1.4199
H	-2.4538	-9.5717	2.1517
H	-1.1286	-9.9982	1.4336
H	-0.7373	-10.2203	-1.1414
H	-1.5586	-9.4713	-2.2489
H	-2.0168	-10.8882	-1.7552
H	-5.0269	-9.0871	0.3064
C	4.0845	1.2614	0.0487
H	-4.8013	-8.9655	-1.2398
H	-4.5264	-11.2565	-1.3598
H	-6.1001	-11.4134	0.6802
H	-5.6948	-12.5237	-0.4135
C	-2.2565	2.0862	0.0881
C	-2.4697	3.4943	0.0861
C	-1.2537	4.0829	0.1156
C	-0.2721	3.0308	0.0940
C	1.1061	3.2458	0.0901
C	2.0913	2.2395	0.0487
C	3.4888	2.4369	0.0979
C	3.0429	0.2763	-0.0595
C	3.2491	-1.1054	-0.0909
C	2.2358	-2.0800	-0.0850
C	2.4490	-3.4846	-0.1598
C	1.2524	-4.0873	-0.1440
H	-9.0486	5.0857	0.3104
C	0.2584	-3.0405	-0.0516
H	-8.9428	4.8443	-1.2319
C	-1.1162	-3.2537	-0.0536
H	-11.2268	4.7421	-1.3794
C	-2.0802	-2.2298	-0.0319
H	-11.2744	6.1308	0.7982
C	-3.4954	-2.4607	-0.0417
H	-12.4182	5.8999	-0.3113
C	-4.0946	-1.2587	-0.0083
C	-3.0425	-0.2577	-0.0083
C	-3.2751	1.1134	0.0271
C	4.6837	-1.5795	-0.0988
C	5.4256	-1.5442	-1.2319
C	6.7791	-1.9408	-1.1984
C	7.3854	-2.3320	-0.0634
C	6.5976	-2.4043	1.0658
C	5.2529	-2.0624	1.0500
C	-1.5921	-4.6812	-0.0988
C	-1.7348	-5.3456	-1.2653
C	-2.0714	-6.6938	-1.2771
C	-2.2935	-7.4129	-0.1283
C	-2.1913	-6.7044	1.0461
C	-1.8264	-5.3668	1.0618
C	-4.6797	1.5804	-0.0201
C	9.8791	-1.8914	1.5281
C	-5.3529	1.9452	1.1248
C	10.1276	-2.2985	-1.4798
C	-6.6888	2.3365	1.0658
C	9.3786	-4.6618	0.1746
C	-7.4060	2.3382	-0.0988
Si	9.2235	-2.7529	0.0336
C	10.7514	-4.9791	0.6645
C	-6.7311	1.9910	-1.2378
C	11.7436	-5.4196	0.3301
C	-5.3652	1.6227	-1.1847
C	-10.0267	1.8395	-1.5506
C	-10.0284	2.3083	1.4651
H	3.9188	3.2599	0.1569
H	5.0009	1.0993	0.0802
*