! UKS B3LYP ma-def2-SVP OPT NumFreq
%basis

end 

%scf
  maxiter 200
end

%pal 
	nprocs 16
end
* xyz 0 1
Ni	-0.7272	-0.2398	0.2856
C	0.1427	1.9374	-3.2023
H	-0.0021	2.1648	-4.0931
C	1.1496	2.3657	-2.4070
C	0.9836	1.7576	-1.1239
H	1.8284	2.9526	-2.6509
C	1.8409	1.9656	-0.0571
C	1.6593	-3.7714	3.7668
C	1.7822	1.1778	1.0966
N	-2.3524	-0.6042	-0.7146
H	-1.1029	-3.2797	4.2991
C	2.6653	4.2763	-0.5640
H	6.1932	3.1712	-0.3858
H	4.4981	1.6836	0.0108
C	3.6980	5.1664	-0.8588
N	-0.1172	0.9292	-1.1387
H	-3.3741	-3.2391	3.3702
N	0.8763	0.1520	1.3024
C	1.3359	-0.5037	2.4455
H	-4.4530	-2.1252	1.2451
C	5.0188	4.7592	-0.7824
N	-1.3260	-1.4114	1.7053
C	0.7221	-1.6000	3.0584
H	-5.3886	-1.5260	-1.1430
C	1.9294	-1.9437	5.2832
C	-0.5791	-1.9507	2.7297
H	-4.4326	-0.5266	-3.1642
C	2.9558	2.9509	-0.2353
H	2.4688	-5.4952	4.4370
C	-1.3855	-2.8056	3.5526
H	-2.0682	-1.0430	-4.9945
C	-2.6311	-2.7897	3.0372
H	-2.6711	-0.5460	-7.1705
C	-2.5896	-1.9472	1.8729
H	1.7822	4.5653	-0.5873
H	-3.2872	3.2664	-6.1100
C	-3.6184	-1.8009	0.9927
H	-2.7016	2.7605	-3.9468
C	5.3085	3.4514	-0.4431
C	-3.5080	-1.2105	-0.2437
C	4.2899	2.5666	-0.1928
H	-2.7987	2.3657	-8.6699
C	-4.5227	-1.2017	-1.2384
H	-4.3082	2.1612	-8.2988
C	-4.0044	-0.6394	-2.3455
H	-3.4587	0.9522	-8.8247
C	-2.2937	0.8129	-4.2416
H	2.9174	-2.4425	6.9608
C	-2.3070	-0.1723	-5.2172
H	3.4976	6.0406	-1.1090
C	-2.6750	0.1273	-6.5278
C	2.3443	-4.5998	4.6533
H	3.4201	1.8581	2.2695
C	-3.0469	1.4192	-6.8905
H	4.1529	-4.4588	7.3744
H	3.0208	-0.1265	3.6714
C	-3.0430	2.3957	-5.8958
H	4.1975	-5.5780	6.2800
C	2.7554	1.2183	2.1507
C	-2.6828	2.0943	-4.5936
H	3.0129	-5.5322	7.3044
C	2.5134	0.1431	2.9397
C	-3.4383	1.7541	-8.2966
H	5.7062	5.3602	-0.9563
C	-1.8537	0.4992	-2.8588
C	1.4494	-2.4108	4.0574
H	1.3351	-4.1239	2.9694
C	2.6097	-2.7844	6.1528
C	2.8454	-4.1151	5.8516
C	-0.6519	1.0650	-2.4007
C	-2.6538	-0.2428	-2.0168
C	3.6228	-5.0017	6.7869
H	1.7908	-1.0554	5.5208
*