! UKS B3LYP ma-def2-SVP OPT NumFreq
%basis

end 

%scf
  maxiter 200
end

%pal 
	nprocs 16
end
* xyz 0 1
N	2.4752	-5.8685	-2.2877
H	-3.8517	-2.0640	-2.7451
H	-0.3942	-3.8326	3.8798
H	-1.0443	-5.7451	5.0227
H	-2.1829	-1.9213	-1.1924
H	1.5452	-1.7917	2.0832
H	-4.4161	-0.1910	-3.9822
H	3.2016	-1.7643	3.6555
H	-2.5395	-7.1921	4.0811
C	-0.1359	-3.0483	0.4874
C	-1.0804	-2.9114	1.5235
C	-1.5254	-4.1423	2.2512
C	-3.4054	-1.2603	-2.6205
C	-1.0116	-4.4180	3.4944
C	-1.4002	-5.5574	4.1832
C	-2.3892	-1.1677	-1.6926
C	2.0257	-1.0056	2.2104
C	-3.7279	-0.1636	-3.3572
C	3.0190	-1.0002	3.1437
C	-2.2996	-6.4181	3.6240
N	-1.6861	-0.0515	-1.4709
N	0.4875	-6.6543	1.0370
H	-3.4405	-6.7453	2.0106
H	-2.9590	-2.2682	3.5313
H	-2.8198	-4.8317	0.8665
C	-2.7254	-0.2680	3.2965
C	-1.6051	-1.6948	1.9723
C	-2.8288	-6.1590	2.3882
C	-2.5461	-1.5731	3.0697
C	-2.4522	-5.0144	1.6983
N	-1.2730	-0.4473	1.5168
H	3.4405	6.7453	-2.0106
H	2.9590	2.2682	-3.5313
H	2.8198	4.8317	-0.8665
C	2.7254	0.2680	-3.2965
C	1.6051	1.6948	-1.9723
C	2.8288	6.1590	-2.3882
C	2.5461	1.5731	-3.0697
C	2.4522	5.0144	-1.6983
N	1.2730	0.4473	-1.5168
Ni	0.0000	0.0000	0.0000
H	0.3942	3.8326	-3.8798
H	3.8517	2.0640	2.7451
H	1.0443	5.7451	-5.0227
H	-1.5452	1.7917	-2.0832
H	-3.2016	1.7643	-3.6555
H	2.1829	1.9213	1.1924
H	2.5395	7.1921	-4.0811
H	4.4161	0.1910	3.9822
C	0.1359	3.0483	-0.4874
C	1.0804	2.9114	-1.5235
C	1.5254	4.1423	-2.2512
C	1.0116	4.4180	-3.4944
C	3.4054	1.2603	2.6205
C	1.4002	5.5574	-4.1832
C	-2.0257	1.0056	-2.2104
C	-3.0190	1.0002	-3.1437
C	2.3892	1.1677	1.6926
C	2.2996	6.4181	-3.6240
C	3.7279	0.1636	3.3572
N	-0.4875	6.6543	-1.0370
N	1.6861	0.0515	1.4709
H	-1.9493	4.0939	6.1284
H	-3.2423	0.1175	3.9787
H	1.9493	-4.0939	-6.1284
H	3.2423	-0.1175	-3.9787
H	-0.8955	3.0246	4.3628
H	-4.4646	2.3988	2.6435
H	0.8955	-3.0246	-4.3628
H	4.4646	-2.3988	-2.6435
H	-5.4892	3.5208	4.4241
H	5.4892	-3.5208	-4.4241
H	-4.2206	4.3486	6.1326
C	-1.9908	4.9937	1.7563
C	-2.4592	3.7657	5.4152
H	4.2206	-4.3486	-6.1326
C	-1.8777	1.8437	2.2284
C	1.9908	-4.9937	-1.7563
C	2.4592	-3.7657	-5.4152
C	1.8777	-1.8437	-2.2284
C	-2.5749	2.6053	3.3189
C	-1.2733	3.9911	1.0260
C	-0.4347	5.5931	-0.6432
C	2.5749	-2.6053	-3.3189
C	1.2733	-3.9911	-1.0260
C	0.4347	-5.5931	0.6432
C	-1.9317	0.4510	2.3163
C	-1.8224	3.1113	4.3649
C	1.9317	-0.4510	-2.3163
C	-3.9493	2.7512	3.3386
C	1.8224	-3.1113	-4.3649
C	3.9493	-2.7512	-3.3386
C	-1.1746	2.5605	1.2409
C	1.1746	-2.5605	-1.2409
C	-0.4853	4.2869	-0.0650
C	0.4853	-4.2869	0.0650
C	-4.5601	3.4154	4.4022
C	4.5601	-3.4154	-4.4022
C	-3.8209	3.9084	5.4231
N	-0.3275	2.0248	0.3034
C	3.8209	-3.9084	-5.4231
N	0.3275	-2.0248	-0.3034
N	-2.4752	5.8685	2.2877
*