! UKS B3LYP ma-def2-SVP OPT NumFreq
%basis

end 

%scf
  maxiter 200
end

%pal 
	nprocs 16
end
* xyz 0 1
C	-2.0783	5.0054	-1.4652
C	-2.3500	6.3143	-1.8585
C	-1.3119	7.1040	-2.3327
C	-0.0348	6.5779	-2.4130
C	0.2188	5.2782	-2.0074
C	-2.7300	9.0184	-2.5692
C	-1.3321	1.1054	5.4298
C	-1.4184	1.4688	6.7660
C	-0.3251	2.0512	7.3903
H	-0.4206	-7.2443	3.2271
C	0.8453	2.2644	6.6613
C	-1.4718	2.1815	9.4812
O	-1.4521	8.4058	-2.7463
H	3.3338	-6.9588	1.7564
H	3.2811	-9.1449	2.0585
H	3.6037	-8.5256	3.4973
O	-0.2894	2.4251	8.7087
H	3.0073	-10.0048	3.3804
C	0.2419	-6.7631	2.7473
Fe	0.0562	-0.1595	-0.0172
H	0.9534	-3.4132	3.8265
H	0.5539	-1.2432	4.9528
H	-0.5954	3.6481	3.3537
H	-0.8437	4.7498	1.1534
H	-0.3416	3.1842	-3.8834
H	0.0721	1.0165	-4.9998
H	0.3826	-4.0279	-3.3631
H	0.6176	-5.1250	-1.1625
H	1.7236	2.0215	4.8519
H	-2.7897	4.4632	-1.1448
H	-1.8718	-1.7474	-4.8526
H	-1.9789	-2.4681	-7.0683
H	2.0439	-2.5636	-7.1952
H	2.1433	-1.8349	-4.9894
H	-1.6168	-3.9588	-8.9019
H	-1.7010	-2.4071	-9.2824
H	-0.9657	-3.4339	-10.2666
H	-0.9111	-5.1377	2.3852
C	1.4986	-7.3213	2.5526
C	2.9944	-9.1046	2.9938
H	-2.6062	-0.4224	1.8055
H	-4.7648	-0.6112	-1.5511
H	-2.3826	-0.4524	-2.1481
H	-5.2018	-1.3146	1.9314
H	-5.5121	0.2257	1.6292
H	-6.0742	-0.9105	0.6529
H	2.5126	1.8868	1.7803
H	3.6184	3.9279	1.4283
H	2.6694	1.1351	-2.1939
C	0.4871	-2.3884	2.0035
C	0.7053	-2.5970	3.4079
C	0.4910	-1.4159	4.0199
C	0.1491	-0.4627	2.9963
C	-0.1097	0.8826	3.2526
C	-0.3055	1.8327	2.2494
C	-0.5422	3.2289	2.5030
C	-0.6740	3.8272	1.3060
O	1.6795	-8.5796	3.0632
C	-0.5106	2.8119	0.2975
C	-0.5296	3.0604	-1.0737
C	-0.2843	2.0876	-2.0391
C	-0.2362	2.3416	-3.4569
C	-0.0139	1.1616	-4.0649
C	0.0672	0.1578	-3.0348
C	0.1770	-1.2160	-3.2792
C	0.2643	-2.1791	-2.2708
C	0.3881	-3.5980	-2.5161
C	0.5127	-4.1939	-1.3199
C	0.4587	-3.1625	-0.3247
C	0.5944	-3.3919	1.0455
C	-0.1757	1.3126	4.6887
H	2.8201	-4.8441	0.9016
C	0.9155	1.8868	5.3331
C	-0.8000	4.4686	-1.5279
C	0.1449	-1.6913	-4.6964
C	-1.0664	-1.9017	-5.3314
H	4.2454	4.5587	-0.7336
C	-1.1353	-2.3345	-6.6519
H	3.7668	3.1773	-2.5359
C	0.0150	-2.5636	-7.3427
C	1.2412	-2.3863	-6.7202
C	1.2986	-1.9535	-5.4077
C	-1.1453	-3.2140	-9.3284
C	0.8994	-4.7811	1.5338
C	-0.0479	-5.5083	2.2441
C	-2.8395	-0.4556	0.8847
C	-4.0351	-0.5594	-0.9456
C	-2.7296	-0.4685	-1.2642
C	-5.3243	-0.6469	1.2244
C	2.4933	1.3343	-0.1814
C	2.7689	2.1505	0.9039
C	3.4242	3.3592	0.6932
C	3.5137	2.9148	-1.6587
C	2.8607	1.7038	-1.4580
N	0.1545	-1.0694	1.7621
N	-0.2808	1.5933	0.8947
N	-0.0749	0.7484	-1.7982
N	0.2762	-1.9359	-0.9172
N	1.8376	0.0550	0.0247
N	-1.9711	-0.4045	-0.1075
N	-4.1048	-0.5601	0.4204
O	0.0861	-2.9807	-8.6513
H	-3.2327	6.6608	-1.8019
H	0.6749	7.1132	-2.7497
H	1.1037	4.9363	-2.0585
H	-3.3980	8.5383	-3.1003
H	-2.9800	8.9839	-1.6215
H	-2.6883	9.9520	-2.8619
H	-2.0843	0.7034	5.0093
H	-2.2221	1.3205	7.2513
H	1.5963	2.6696	7.0782
C	2.4635	-6.5972	1.8762
H	-1.6950	1.2284	9.4444
C	2.1537	-5.3334	1.3694
H	-1.3134	2.4440	10.4106
H	-2.2151	2.7053	9.1167
C	3.7956	3.7333	-0.5919
O	2.6432	-0.8845	0.2480
*