! UKS B3LYP ma-def2-SVP OPT NumFreq
%basis
NewGTO Ir "ma-def2-TZVP" end
end 

%scf
  maxiter 200
end

%pal 
	nprocs 16
end
* xyz 0 1
H	-1.6943	-5.1617	7.5555
H	-3.1489	-5.4999	6.9837
H	-1.8992	-6.4171	6.5845
H	1.9811	5.5617	-7.9999
H	3.8021	-5.1275	4.2635
C	1.6076	6.0197	-7.2172
H	2.9215	-4.0682	5.0771
H	4.4979	-4.1642	5.3357
C	-6.1034	6.4000	3.3687
C	-0.8081	-2.7549	4.5513
C	-1.0350	-3.5826	5.6389
C	-1.9236	-4.6182	5.5841
C	-2.5568	-4.8288	4.3969
C	-2.1903	-5.5012	6.7838
C	3.7923	-4.2313	4.6590
H	2.0713	-1.5811	-4.5033
H	1.2449	0.6362	-5.1788
H	-0.4197	4.8669	-2.1585
H	-1.8461	4.9854	-0.1547
H	-3.9277	1.3455	3.1859
H	-3.2564	-0.9494	3.7986
H	0.5982	-4.2445	2.1054
H	2.1219	-4.2721	0.1548
H	2.5312	2.6443	-4.2962
H	3.0528	4.1458	-6.0073
H	-0.7236	5.4920	-6.0187
H	-1.2916	3.9524	-4.3658
H	-6.4727	4.5116	1.5248
H	-5.0350	2.9588	0.5978
H	-2.0574	4.4406	2.7747
H	-2.7504	-4.2063	2.4591
H	1.5634	-4.3958	-3.3529
H	3.2840	-5.7618	-4.1208
H	4.2405	-2.2022	-1.2994
H	5.9441	-3.5813	-2.0524
H	5.5324	-6.3947	-4.2655
H	1.1231	1.7929	0.5058
H	6.5539	-5.1643	-4.1998
H	1.9572	0.5257	0.0239
H	6.3723	-6.1223	-2.9314
H	0.6441	0.7507	2.4840
H	1.4297	-0.5534	2.0001
H	2.5182	1.9048	2.8742
H	3.3712	1.0679	1.8191
H	4.1405	0.5362	1.2908
H	3.2370	-1.5916	1.6616
H	4.6000	0.5810	2.8094
H	4.8269	-1.5153	1.8773
H	2.8660	-1.4824	3.9987
H	4.4376	-1.2389	4.2669
H	3.5079	-3.5221	2.8072
H	4.9833	-3.3089	3.3373
Ir	-0.5083	0.0690	-0.4150
C	1.2465	-1.1679	-2.5736
C	1.6057	-0.9639	-3.9485
C	1.1692	0.2494	-4.3137
C	0.5654	0.8613	-3.1610
C	0.2082	2.2009	-3.0194
C	-0.4313	2.7325	-1.8947
C	-0.7209	4.1300	-1.6405
C	-1.4901	4.1932	-0.5420
C	-1.6785	2.8575	-0.0544
C	-2.4808	2.4706	1.0221
C	-2.5105	1.1995	1.5836
C	-3.2800	0.8139	2.7397
C	-2.9135	-0.4402	3.0737
C	-1.9085	-0.8692	2.1338
C	-1.2035	-2.0627	2.1846
C	-0.2384	-2.4654	1.2654
C	0.6134	-3.6129	1.3956
C	1.4394	-3.6339	0.3255
C	1.0966	-2.5141	-0.5043
C	1.6258	-2.2417	-1.7611
C	0.5631	3.1470	-4.1365
C	1.8575	3.2168	-4.6429
C	2.1701	4.1247	-5.6570
C	1.2261	4.9893	-6.1566
C	-0.0573	4.9117	-5.6705
C	-0.3957	3.9971	-4.6775
C	-3.4022	3.5036	1.6170
C	-4.7060	3.5655	1.2498
C	-5.5657	4.4971	1.8088
C	-5.1607	5.3893	2.7446
C	-3.8314	5.3551	3.0778
C	-2.9724	4.4313	2.5220
C	-1.4567	-2.9654	3.3689
C	-2.3143	-4.0195	3.2822
C	2.7175	-3.1457	-2.2646
C	2.4583	-4.2142	-3.0908
C	3.4877	-5.0341	-3.5451
H	0.8108	6.5237	-7.4845
H	2.2763	6.6355	-6.8496
C	4.0348	-2.9260	-1.8802
C	4.8032	-4.8077	-3.1726
C	5.0518	-3.7510	-2.3314
C	1.1652	0.8047	0.5487
H	-3.4944	5.9828	3.7069
H	-7.0055	6.2697	3.0085
H	-6.1182	6.2749	4.3395
C	1.4070	0.4349	1.9371
H	-5.7949	7.3066	3.1599
C	2.7010	0.9902	2.5422
C	3.8859	0.2559	2.2054
C	3.9532	-1.2100	2.2297
C	3.7796	-1.6758	3.6710
C	5.9137	-5.7012	-3.6885
C	4.0304	-3.2115	3.5879
N	0.5307	-0.0758	-2.1399
N	-0.9811	1.9857	-0.8716
N	-1.6973	0.1434	1.2100
N	0.0786	-1.7989	0.1036
H	-0.1948	-2.0338	4.6289
H	-0.5580	-3.4247	6.4467
H	-3.1790	-5.5420	4.3257
*