! UKS B3LYP ma-def2-SVP OPT NumFreq
%basis
NewGTO Ir "ma-def2-TZVP" end
end 

%scf
  maxiter 200
end

%pal 
	nprocs 16
end
* xyz 0 1
H	-1.7677	-1.1600	4.6789
H	0.4061	-0.1413	5.1247
H	4.3530	1.7807	2.1297
H	-1.4964	5.1696	-1.2585
H	4.8429	1.7790	-0.2732
H	2.3812	-0.1430	-4.5660
H	-0.3782	4.2256	-1.8243
H	-3.7801	-2.6812	-2.0808
H	-2.0171	4.9896	1.3330
H	0.2139	-1.0479	-5.0300
H	-4.3184	-2.6473	0.3241
H	0.1359	4.8810	0.3974
H	4.0278	-0.1464	4.2486
H	4.9846	0.7314	6.1757
H	2.1604	3.4225	6.3551
H	1.2223	2.5736	4.4564
H	5.2164	2.2782	7.8638
H	4.5869	3.6823	7.5658
H	3.7949	2.6347	8.4226
H	5.2570	-0.2924	-2.3602
H	6.8959	0.2289	-3.8882
H	4.7759	3.3954	-4.9641
H	3.0304	2.7383	-3.5568
H	7.7450	1.5668	-5.6717
H	-2.3664	-0.6268	-5.0113
H	6.6290	2.2052	-6.5697
H	-3.3451	-1.5963	-6.8560
H	7.3770	3.0830	-5.5069
H	-2.9036	-5.1873	-5.1572
H	-1.9479	-4.1889	-3.3078
H	-3.6450	-5.2297	-7.2474
H	-4.5392	-4.0005	-7.6288
H	-3.0980	-4.1380	-8.2296
H	-4.8457	-0.6931	2.1179
H	-6.6801	-1.4554	3.2974
H	-4.4392	-4.3112	4.8818
H	-2.5938	-3.5641	3.7213
H	-6.5900	-4.0973	5.6941
H	-7.1799	-2.6456	5.6761
H	-7.5776	-3.6677	4.5557
H	-1.5656	1.5328	1.9036
H	-2.5630	0.9912	0.8163
H	-0.7440	1.7977	-2.0941
H	-2.0731	1.1661	-1.5439
H	0.5907	2.6262	1.1385
H	-3.3473	3.1118	1.6448
H	0.9246	2.7502	-0.3888
H	-3.7966	2.4785	-0.5754
H	-3.7230	4.0405	-0.4417
H	-2.4949	3.4089	-2.3432
H	-1.1921	3.9302	2.1426
C	-1.2712	-1.0275	2.6118
C	-1.1427	-0.8968	4.0434
Ir	0.1913	-0.3032	0.0284
C	0.0502	-0.3263	4.2841
C	0.6753	-0.0513	3.0386
C	1.8946	0.6058	2.8701
C	2.5482	0.8214	1.6295
C	3.8081	1.4428	1.4572
C	4.0706	1.4530	0.1274
C	2.9876	0.8944	-0.5277
C	2.8546	0.7128	-1.9162
C	1.7924	0.1440	-2.5531
C	1.7045	-0.2584	-3.9383
C	-1.0911	4.2918	-1.1706
C	-1.3404	-1.6099	-2.7894
C	0.5489	-0.8085	-4.1950
C	-1.9764	-1.7254	-1.5805
C	-0.0838	-0.9664	-2.9512
C	-3.2463	-2.3298	-1.4048
C	-0.5023	4.1594	0.2182
C	-3.5517	-2.3077	-0.0785
C	-2.4752	-1.6710	0.5596
C	-2.3609	-1.5692	1.9549
C	2.5624	1.1321	4.1085
C	3.6422	0.6007	4.6459
C	4.2310	1.1457	5.8214
C	3.7642	2.1933	6.4221
C	2.5745	2.7145	5.9175
C	2.0066	2.1950	4.7803
C	4.3991	2.7485	7.6836
C	4.0058	1.1763	-2.7737
C	5.1384	0.4479	-2.9115
C	6.1325	0.7569	-3.8323
C	5.9831	1.8401	-4.6545
C	4.8583	2.6059	-4.4772
C	-1.9413	-2.2975	-3.9938
C	3.8213	2.2510	-3.5876
C	-2.4290	-1.5539	-5.0531
C	7.0299	2.2069	-5.6981
C	-3.0090	-2.1277	-6.1717
C	-3.0639	-3.5047	-6.2570
C	-2.7454	-4.2704	-5.1543
C	-2.1742	-3.6643	-4.0425
C	-3.6461	-4.2959	-7.4531
C	-3.5242	-2.0361	2.7608
C	-4.7479	-1.4265	2.6812
C	-5.8530	-1.8663	3.4114
C	-5.7156	-2.9139	4.3050
C	-4.5194	-3.5539	4.3470
C	-3.4089	-3.1261	3.6288
C	-6.8690	-3.3706	5.1326
C	-0.7538	1.6585	-0.0396
C	-1.9215	1.6924	1.0153
C	-1.4129	1.8622	-1.3943
C	-2.6311	3.0796	0.9758
C	0.2040	2.7638	0.2606
C	-3.2023	3.2239	-0.3946
C	-2.1039	3.2629	-1.4557
C	-1.5920	4.1203	1.2809
N	-0.1431	-0.4672	2.0301
N	-1.4437	-1.2856	-0.3496
N	2.0286	0.4547	0.4099
N	0.6335	-0.3637	-1.9484
*