! UKS B3LYP ma-def2-SVP OPT NumFreq
%basis
NewGTO Ir "ma-def2-TZVP" end
end 

%scf
  maxiter 200
end

%pal 
	nprocs 16
end
* xyz 0 1
H	-2.8481	-0.6744	9.1591
H	-1.6145	-1.6868	9.2632
H	-3.5685	0.6748	-3.5975
H	-4.7015	1.4577	1.6274
C	-1.2655	-0.4195	4.6994
C	-1.1338	-0.0499	7.0842
C	-0.7581	0.2811	5.7848
H	-7.0474	-1.0714	-2.4255
C	4.7738	-0.4124	1.1828
H	-4.7828	-1.0477	-1.9122
C	3.0432	0.1835	-0.4760
C	5.2678	-1.6950	1.4103
C	4.0106	0.3547	-1.5242
H	-9.1980	-0.0881	-2.4609
C	6.6153	-1.8934	1.6887
C	3.3346	0.5985	-2.6625
H	-9.1684	1.4923	-2.7064
C	7.4969	-0.8292	1.7645
C	1.9280	0.5865	-2.3488
H	-9.4731	0.9151	-1.2464
C	6.9954	0.4490	1.5523
C	0.8955	0.7513	-3.2747
C	5.6583	0.6639	1.2609
C	8.9642	-1.0495	2.0243
N	1.0383	-0.1083	1.7208
C	-3.1232	0.8955	2.8269
C	-1.8039	0.4583	2.4429
C	1.2905	0.9124	-4.7134
H	-2.3038	-1.9235	-0.4374
C	1.8880	-0.1355	-5.4101
H	-1.6663	-2.1784	1.0230
C	2.3199	0.0412	-6.7144
H	-1.8793	-4.3670	0.3292
C	2.1735	1.2574	-7.3699
H	-1.6426	-3.9865	-1.2184
C	1.1159	2.1271	-5.3712
C	2.6927	1.4322	-8.7821
C	-0.2360	-1.6912	-0.4078
C	-1.3542	-3.8007	-0.2899
C	0.1486	-4.0629	-0.1249
H	1.4339	3.1256	-7.1165
C	0.7994	-2.6806	0.1011
H	0.6929	2.8506	-4.9241
C	-1.5361	0.7562	-3.9197
H	2.5063	2.3445	-9.0893
C	-2.6943	0.7063	-3.2271
N	-0.9918	0.7130	-1.6883
C	-2.3645	0.7079	-1.8205
C	-3.2741	0.8317	-0.7768
C	-2.9191	0.9022	0.5776
N	1.7731	0.3523	-1.0009
C	-3.8007	1.1577	1.6859
C	-2.1441	-1.4708	4.9436
C	-2.5005	-1.8088	6.2433
C	-2.0080	-1.0985	7.3321
H	1.3422	-1.2225	4.7152
H	3.4884	-1.1879	3.4881
C	-2.4103	-1.4464	8.7458
C	-4.7311	0.8388	-1.1311
C	-5.5357	1.9364	-0.8821
C	-6.8891	1.9202	-1.1908
C	-7.4808	0.7986	-1.7535
C	-6.6687	-0.2993	-2.0234
C	-5.3168	-0.2864	-1.7191
H	-0.7862	0.4490	7.8125
C	-8.9599	0.7768	-2.0706
H	-0.1472	0.9934	5.6396
H	-5.1556	2.7159	-0.4949
H	-1.4474	0.7877	-4.8649
H	-7.4171	2.6886	-1.0124
H	4.6791	-2.4406	1.3750
H	6.9378	-2.7756	1.8307
H	7.5827	1.1937	1.6073
H	5.3418	1.5470	1.1138
H	4.9543	0.3052	-1.4311
H	9.1343	-2.0054	2.1520
H	3.7147	0.7513	-3.5184
H	9.2304	-0.5597	2.8298
H	9.4833	-0.7236	1.2593
C	-1.5332	-2.3095	0.0494
H	0.9872	-2.5316	1.0615
N	-1.6730	0.5572	1.0751
H	2.0019	-0.9785	-4.9868
H	2.7252	-0.6853	-7.1720
C	1.5582	2.2880	-6.6837
H	2.2475	0.7913	-9.3751
H	-3.4531	0.9825	3.7119
H	3.6600	1.2738	-8.7961
H	-0.2271	-1.7669	-1.4048
C	-0.8484	-0.0916	3.3050
C	0.4681	-0.3787	2.9451
C	1.4768	-0.9179	3.8246
C	2.6439	-0.9088	3.1516
C	2.3835	-0.4008	1.8328
H	0.5169	-4.4908	-0.9385
C	3.3331	-0.1934	0.8327
H	0.3142	-4.6547	0.6498
H	1.6455	-2.6008	-0.4077
Ir	0.0324	0.3310	0.0214
H	-2.5050	-1.9617	4.2147
C	-0.4623	0.7536	-2.9603
H	-3.0892	-2.5389	6.3911
H	-3.0315	-2.2057	8.7305
*