! UKS B3LYP ma-def2-SVP OPT NumFreq
%basis

end 

%scf
  maxiter 200
end

%pal 
	nprocs 16
end
* xyz 0 1
H	7.4437	-3.1438	-5.4186
H	6.8274	-1.7165	-5.2377
H	8.3668	-1.8760	-5.4872
C	4.0213	-3.6884	-4.6235
C	4.4263	-2.9045	-5.6956
C	4.0878	-1.5543	-5.6686
B	-5.1029	3.5411	6.9603
C	-3.8252	7.5999	8.1269
C	-5.1603	7.3079	7.9108
C	4.6541	-4.9954	-7.3599
C	3.2875	-5.3103	-7.5412
H	-4.5536	-0.0149	2.3691
C	2.9169	-6.5700	-7.9472
H	-4.7512	-1.7584	0.6648
C	5.5889	-6.0307	-7.5660
H	-4.2372	4.5940	4.6154
C	6.1509	-2.7396	-7.8064
H	-4.3838	1.0002	6.3548
C	-3.3795	8.9812	8.5305
C	7.2649	-2.1382	-7.1869
H	5.7903	-7.9864	-7.9965
C	7.0611	-5.7955	-7.3842
C	7.4982	-2.2274	-5.6974
H	-7.5318	6.6281	7.4686
H	-7.2202	5.4252	6.5127
H	3.0030	-9.4326	-7.7704
H	-7.3734	5.1819	8.0525
H	4.1322	-9.4772	-8.8603
H	2.7153	-8.9150	-9.2164
H	-7.4437	3.1438	5.4186
H	-6.8274	1.7165	5.2377
H	-8.3668	1.8760	5.4872
C	-4.0213	3.6884	4.6235
C	-4.4263	2.9045	5.6956
C	-4.0878	1.5543	5.6686
C	-4.6541	4.9954	7.3599
C	-3.2875	5.3103	7.5412
C	-2.9169	6.5700	7.9472
C	-5.5889	6.0307	7.5660
C	-6.1509	2.7396	7.8064
C	3.8252	-7.5999	-8.1269
C	5.1603	-7.3079	-7.9108
C	-7.2649	2.1382	7.1869
C	-7.0611	5.7955	7.3842
C	-7.4982	2.2274	5.6974
C	3.3795	-8.9812	-8.5305
H	-6.9497	1.9138	10.8708
H	-8.9649	1.1191	7.5340
H	-4.0646	2.9005	9.6097
H	-4.9038	4.1912	9.8958
H	-4.9473	2.9897	10.9027
H	-9.0712	-0.1311	10.2411
H	-9.3050	1.2232	10.9937
H	-10.0861	0.9177	9.6689
Zn	0.0000	0.0000	0.0000
H	1.7109	3.5871	3.2077
H	-1.7109	-3.5871	-3.2077
H	-0.5898	3.2005	3.9618
H	0.5898	-3.2005	-3.9618
H	-3.1764	-2.6626	-1.2282
H	3.1764	2.6626	1.2282
H	-3.0734	3.6898	2.8398
H	3.0734	-3.6898	-2.8398
H	-3.0772	0.1122	4.6676
H	3.0772	-0.1122	-4.6676
H	-2.0164	6.7389	8.1073
H	2.0164	-6.7389	-8.1073
H	-2.5337	3.4046	7.6693
H	2.5337	-3.4046	-7.6693
H	-1.9803	4.1872	6.4283
H	1.9803	-4.1872	-6.4283
H	-1.4293	4.5007	7.8605
H	1.4293	-4.5007	-7.8605
C	-6.0499	2.6437	9.2212
C	-7.0389	1.9868	9.9484
C	-8.1501	1.4394	9.3359
C	-8.2345	1.5084	7.9593
C	-4.8866	3.2357	9.9761
C	-9.2529	0.8055	10.1307
C	1.3142	2.1666	1.6868
C	-1.3142	-2.1666	-1.6868
C	1.0960	3.0032	2.8266
C	-1.0960	-3.0032	-2.8266
C	-0.1692	2.7869	3.2435
C	0.1692	-2.7869	-3.2435
C	-0.7472	1.8043	2.3767
C	0.7472	-1.8043	-2.3767
C	-2.0402	1.2624	2.4971
C	2.0402	-1.2624	-2.4971
C	-2.5500	0.2500	1.6864
C	2.5500	-0.2500	-1.6864
C	-3.8914	-0.2825	1.7738
C	3.8914	0.2825	-1.7738
C	-4.0018	-1.2353	0.8337
C	4.0018	1.2353	-0.8337
C	-2.7438	-1.2948	0.1352
C	2.7438	1.2948	-0.1352
C	-2.4868	-2.1017	-0.9549
C	2.4868	2.1017	0.9549
C	-2.9073	1.8138	3.5780
C	2.9073	-1.8138	-3.5780
C	-3.2977	3.1519	3.5651
C	3.2977	-3.1519	-3.5651
C	-3.3180	1.0096	4.6435
C	3.3180	-1.0096	-4.6435
H	6.9497	-1.9138	-10.8708
H	8.9649	-1.1191	-7.5340
H	4.0646	-2.9005	-9.6097
C	-2.2067	4.2534	7.3601
C	2.2067	-4.2534	-7.3601
H	4.9038	-4.1912	-9.8958
H	4.9473	-2.9897	-10.9027
H	9.0712	0.1311	-10.2411
H	9.3050	-1.2232	-10.9937
H	10.0861	-0.9177	-9.6689
N	0.1789	1.4286	1.4294
N	-0.1789	-1.4286	-1.4294
N	-1.8781	-0.3852	0.6777
N	1.8781	0.3852	-0.6777
C	6.0499	-2.6437	-9.2212
C	7.0389	-1.9868	-9.9484
C	8.1501	-1.4394	-9.3359
C	8.2345	-1.5084	-7.9593
C	4.8866	-3.2357	-9.9761
C	9.2529	-0.8055	-10.1307
B	5.1029	-3.5411	-6.9603
H	4.5536	0.0149	-2.3691
H	4.7512	1.7584	-0.6648
H	-5.7903	7.9864	7.9965
H	4.2372	-4.5940	-4.6154
H	4.3838	-1.0002	-6.3548
H	-3.0030	9.4326	7.7704
H	-4.1322	9.4772	8.8603
H	-2.7153	8.9150	9.2164
H	7.5318	-6.6281	-7.4686
H	7.2202	-5.4252	-6.5127
H	7.3734	-5.1819	-8.0525
*