! UKS B3LYP ma-def2-SVP OPT NumFreq
%basis

end 

%scf
  maxiter 200
end

%pal 
	nprocs 16
end
* xyz 0 1
H	-3.9393	0.7364	-3.2506
C	4.6478	0.4624	-1.6141
H	-4.9834	0.7774	-1.0112
C	5.1198	1.7058	-1.9678
C	6.4451	1.8673	-2.3459
H	-2.8064	-1.4107	-4.5254
C	7.2972	0.7809	-2.3791
H	-3.7039	-1.3254	-6.6756
C	6.8289	-0.4452	-2.0399
H	-3.0685	0.3783	-8.1435
C	5.5023	-0.6137	-1.6621
H	-1.5476	1.9984	-7.4479
C	0.0108	-3.0330	1.2127
H	-0.6990	1.9626	-5.2798
C	1.3642	-3.5017	-1.5983
N	1.8296	0.1927	0.8931
C	-1.2384	0.1574	4.1264
H	-4.5361	2.4555	1.9536
N	0.8758	0.1684	-1.8545
H	-6.7679	2.7283	2.5829
O	-0.0000	-2.2610	-0.0000
H	-8.2045	0.8916	2.6372
H	-7.4121	-1.1958	2.0605
H	-5.1833	-1.4789	1.4357
H	-0.6013	-3.8187	-1.0920
H	-0.3836	-2.4817	-1.9451
H	-1.9637	-2.7289	1.6741
H	2.8064	-1.4107	4.5254
H	-1.7046	-4.1137	0.9119
H	3.7039	-1.3254	6.6756
H	-1.3210	-3.9671	2.4589
H	3.0685	0.3783	8.1435
C	-2.0915	0.3222	-2.2351
H	1.5476	1.9984	7.4479
C	-3.4980	0.5969	-2.4212
H	0.6990	1.9626	5.2798
C	-4.0668	0.6182	-1.2029
C	-3.0263	0.3561	-0.2419
C	-1.1454	0.2410	-3.2736
C	-0.2457	0.1709	3.0779
C	-2.2235	0.2030	2.1112
C	-2.4504	0.1837	3.5323
C	-3.2301	0.3065	1.1430
C	-1.6671	0.2726	-4.6742
Zn	0.0000	-0.1033	-0.0000
C	-2.5573	-0.7060	-5.1114
H	3.9393	0.7364	3.2506
C	-3.0853	-0.6623	-6.3944
H	4.9834	0.7774	1.0112
C	-2.7109	0.3481	-7.2644
H	3.2936	0.1890	-3.9690
C	-1.8149	1.3122	-6.8478
H	1.0692	0.1344	-5.0617
C	-1.3034	1.2847	-5.5606
C	-4.6478	0.4624	1.6141
C	-5.1198	1.7058	1.9678
C	-6.4451	1.8673	2.3459
C	-7.2972	0.7809	2.3791
H	4.5361	2.4555	-1.9536
C	-6.8289	-0.4452	2.0399
H	6.7679	2.7283	-2.5829
C	-5.5023	-0.6137	1.6621
C	-0.0108	-3.0330	-1.2127
C	1.6671	0.2726	4.6742
H	8.2045	0.8916	-2.6372
H	7.4121	-1.1958	-2.0605
C	-1.3642	-3.5017	1.5983
C	2.5573	-0.7060	5.1114
N	-1.8296	0.1927	-0.8931
H	5.1833	-1.4789	-1.4357
C	3.0853	-0.6623	6.3944
N	-0.8758	0.1684	1.8545
H	0.6013	-3.8187	1.0920
C	2.7109	0.3481	7.2644
H	0.3836	-2.4817	1.9451
C	1.8149	1.3122	6.8478
H	1.9637	-2.7289	-1.6741
C	1.3034	1.2847	5.5606
H	1.7046	-4.1137	-0.9119
H	1.3210	-3.9671	-2.4589
H	-3.2936	0.1890	3.9690
C	2.0915	0.3222	2.2351
H	-1.0692	0.1344	5.0617
C	3.4980	0.5969	2.4212
C	4.0668	0.6182	1.2029
C	3.0263	0.3561	0.2419
C	1.1454	0.2410	3.2736
C	0.2457	0.1709	-3.0779
C	2.2235	0.2030	-2.1112
C	2.4504	0.1837	-3.5323
C	1.2384	0.1574	-4.1264
C	3.2301	0.3065	-1.1430
*