! UKS B3LYP ma-def2-SVP OPT NumFreq
%basis

end 

%scf
  maxiter 200
end

%pal 
	nprocs 16
end
* xyz 0 1
C	3.1215	-1.5959	2.9512
C	-4.1642	-2.5127	5.5558
F	-3.8045	0.9576	-2.2497
C	-3.1085	-1.9289	4.8846
Ni	0.8019	-0.4630	0.7966
C	3.5491	-1.1027	1.7392
C	4.2025	0.0407	-2.6795
F	-3.4548	-3.4318	1.6333
H	-0.5600	-2.9500	5.0241
N	0.7310	-1.3965	2.4908
C	4.9221	-1.0559	1.3251
C	4.8451	-1.0997	-3.1465
F	-5.5561	-4.5405	2.9112
H	1.9048	-2.7778	5.1615
C	5.9019	-1.0468	-4.0346
F	-6.0544	-3.9227	5.5122
C	4.9390	-0.6866	0.0283
N	0.8541	0.4289	-0.9167
C	3.5663	-0.4804	-0.3613
F	-4.4022	-2.2106	6.8450
C	6.3388	0.1759	-4.4908
N	2.7154	-0.7123	0.7035
C	1.8713	0.3942	-1.8624
N	-1.0973	-0.1270	0.9148
C	3.1562	-0.0507	-1.6146
H	3.7775	-1.8247	3.5997
F	-2.3653	-1.0378	5.5654
C	5.7167	1.3246	-4.0736
C	1.4582	1.0769	-3.0600
C	-2.2040	2.5443	-1.5437
H	5.6793	-1.2485	1.8642
C	4.6633	1.2476	-3.1840
C	0.2491	1.6138	-2.8091
H	1.9456	1.1373	-3.8726
H	5.7056	-0.5831	-0.5201
C	-1.8166	3.8743	-1.5676
C	-0.1289	1.2083	-1.4867
H	-0.2596	2.1591	-3.3989
C	-2.5444	4.8485	-2.2164
F	4.4463	-2.3141	-2.7184
C	-1.3531	1.5074	-0.8907
H	-3.8270	1.5353	0.4599
C	-3.7091	4.4935	-2.8728
H	-4.0808	-0.2871	2.1319
F	6.4999	-2.1767	-4.4358
C	-1.8163	0.8284	0.2249
C	-4.1245	3.1840	-2.8741
F	7.3898	0.2476	-5.3202
C	-3.1593	0.9153	0.7279
C	-3.3757	2.2286	-2.2147
C	-3.2891	-0.0567	1.6599
C	0.0149	-2.5316	4.3954
C	-2.8212	-2.2054	3.5575
F	6.1323	2.5156	-4.5315
C	-2.0033	-0.6707	1.7989
C	1.3544	-2.4493	4.4595
C	-3.6750	-3.1041	2.9189
F	-0.6910	4.2572	-0.9250
F	4.1112	2.4061	-2.7791
C	1.8056	-1.7764	3.2754
C	-1.6871	-1.5823	2.8091
C	-4.7531	-3.6818	3.5600
F	-2.1314	6.1256	-2.2274
C	-0.3780	-1.8549	3.1761
C	-4.9935	-3.3797	4.8858
F	-4.4209	5.4338	-3.5109
F	-5.2376	2.8260	-3.5324
*