! UKS B3LYP ma-def2-SVP OPT NumFreq
%basis

end 

%scf
  maxiter 200
end

%pal 
	nprocs 16
end
* xyz 0 1
C	-1.0803	2.5540	2.2748
C	-0.3867	3.2691	1.3467
C	0.1192	2.6832	0.2052
C	0.6597	3.4404	-0.8681
F	0.2953	-8.9300	0.7691
C	0.9126	2.5771	-1.8528
C	0.5156	1.3061	-1.3910
F	4.1597	0.4755	-5.3900
C	0.6514	0.1371	-2.1046
C	0.6479	0.3464	-5.8270
C	1.9749	0.3872	-6.1128
C	0.4467	-1.1013	-1.5395
C	-1.2417	5.6004	1.4335
C	0.7558	-2.2826	-2.2025
C	-1.0795	6.9652	1.5610
C	0.5859	-3.2682	-1.3880
C	0.1707	7.4519	1.7567
C	0.0572	-2.7149	-0.1693
C	1.2142	6.6267	1.8373
C	-0.3272	-3.4096	0.9217
C	2.8413	0.3994	-5.1173
C	-1.0000	-2.8468	1.9930
C	-1.5606	-3.5645	3.0385
C	-2.1514	-2.7027	3.8191
C	-1.9826	-1.4330	3.2835
C	-0.2169	4.7236	1.5261
C	1.0304	5.1749	1.8155
C	1.0903	0.2431	-3.5115
C	0.2376	0.2390	-4.5829
H	-3.9386	0.0623	4.7480
F	2.4367	-7.3246	1.1178
C	2.4318	0.3233	-3.8578
C	-0.2008	-4.8750	0.8496
C	1.0681	-5.4500	0.9763
C	1.2144	-6.8080	0.9653
C	0.1527	-7.6195	0.7767
C	-1.0675	-7.0989	0.6217
C	-1.2350	-5.7164	0.6848
F	-0.2423	0.3165	-6.8357
F	2.3721	0.4674	-7.3872
F	-2.1200	7.7686	1.4865
F	0.3361	8.7664	1.8678
N	-1.2796	1.2001	2.2210
F	2.4488	7.1066	2.0345
N	0.0183	1.3741	-0.0911
N	0.0353	-1.3243	-0.2995
N	-1.2207	-1.5023	2.1429
O	-3.1824	-0.2585	4.9250
Ni	-0.6056	-0.0671	1.0022
H	-3.0992	2.2482	4.7006
H	-1.8363	4.0684	3.5915
H	0.8116	4.3783	-0.8824
F	-2.4741	5.1640	1.1992
H	1.2872	2.7783	-2.7027
H	1.0442	-2.3533	-3.1064
H	0.7730	-4.1844	-1.5598
H	-1.5211	-4.5052	3.1616
F	2.0952	4.4830	1.8544
H	-2.6192	-2.9093	4.6200
F	-1.0650	0.1452	-4.3048
F	3.3310	0.3029	-2.8685
F	2.1226	-4.7078	1.1372
F	-2.1371	-7.8670	0.4286
F	-2.4541	-5.2325	0.4870
C	-2.4370	-0.2925	3.8062
C	-2.0885	0.9513	3.3325
C	-2.4876	2.1598	3.9788
C	-1.8216	3.1481	3.3584
*