! UKS B3LYP ma-def2-SVP OPT NumFreq
%basis

end 

%scf
  maxiter 200
end

%pal 
	nprocs 16
end
* xyz 0 1
C	2.3580	-2.2270	-1.1887
C	-4.2031	5.3488	2.2731
C	3.4544	-3.1391	-1.6460
C	3.1761	-4.4653	-1.9739
C	4.2031	-5.3488	-2.2731
C	-4.7787	2.6953	1.6895
C	6.2101	3.5676	1.1459
C	7.2742	4.4477	1.2083
C	2.8909	1.0032	0.1838
C	4.7787	-2.6953	-1.6895
C	5.9045	6.2485	0.8317
C	3.9712	1.8563	0.2968
C	3.7735	3.1474	0.7812
C	-2.8909	-1.0032	-0.1838
C	2.4747	3.5144	1.1246
C	-3.9712	-1.8563	-0.2968
C	-5.5220	4.9042	2.2938
C	1.4482	2.5937	0.9682
C	-3.7735	-3.1474	-0.7812
C	-5.8015	3.5682	2.0316
C	4.9233	4.0704	0.9131
C	-2.4747	-3.5144	-1.1246
C	-1.4482	-2.5937	-0.9682
C	-6.6460	5.8452	2.5683
C	-4.9233	-4.0704	-0.9131
C	4.7770	5.4512	0.7738
C	-4.7770	-5.4512	-0.7738
N	7.1377	5.7621	1.0418
H	1.6910	6.2557	-8.4286
C	-6.2101	-3.5676	-1.1459
N	-0.9707	1.6328	-0.7630
C	-7.2742	-4.4477	-1.2083
N	-0.9459	0.2991	1.7994
O	6.3034	-7.1082	-2.4779
C	-5.9045	-6.2485	-0.8317
N	1.6398	1.3509	0.5000
O	7.7691	-5.4711	-2.8483
N	0.9707	-1.6328	0.7630
N	0.9459	-0.2991	-1.7994
N	-1.6398	-1.3509	-0.5000
N	-7.1377	-5.7621	-1.0418
O	-6.3034	7.1082	2.4779
O	-7.7691	5.4711	2.8483
C	0.5908	4.0859	-6.5230
C	-0.0136	2.8336	-6.6074
C	0.7092	4.9021	-7.7618
H	0.3247	-2.5051	7.4718
H	-1.6910	-6.2557	8.4286
O	1.6336	5.8544	-7.6950
O	0.0273	4.6976	-8.7479
Ni	0.0000	0.0000	0.0000
H	-2.9287	4.2193	-0.7952
H	-1.6423	3.9432	-2.9068
H	-3.2151	1.4496	3.7500
H	2.9287	-4.2193	0.7952
H	2.0708	0.5867	-4.7015
H	1.6423	-3.9432	2.9068
H	1.1568	4.0928	-3.3031
H	3.2151	-1.4496	-3.7500
H	6.7237	-3.2760	-2.0702
C	-0.5908	-4.0859	6.5230
H	1.4555	5.4245	-5.2074
H	-2.0708	-0.5867	4.7015
C	0.0136	-2.8336	6.6074
H	-1.1568	-4.0928	3.3031
H	-0.5654	1.1648	-5.5351
H	-1.4555	-5.4245	5.2074
H	-2.2751	4.7888	1.9762
C	-0.7092	-4.9021	7.7618
H	6.3585	2.6547	1.2982
H	-4.0046	6.2873	2.4638
H	0.5654	-1.1648	5.5351
H	8.1502	4.1072	1.3594
H	2.2751	-4.7888	-1.9762
H	5.8014	7.1732	0.6778
H	-4.9995	1.7919	1.4393
H	4.0046	-6.2873	-2.4638
H	3.0294	0.1064	-0.1386
H	4.8563	1.5704	-0.0000
H	4.9995	-1.7919	-1.4393
H	2.2814	4.3890	1.4633
H	-3.0294	-0.1064	0.1386
H	0.5447	2.8273	1.1963
H	-4.8563	-1.5704	0.0000
H	-2.2814	-4.3890	-1.4633
H	-0.5447	-2.8273	-1.1963
H	-6.7237	3.2760	2.0702
H	3.9247	5.8357	0.6415
H	-3.9247	-5.8357	-0.6415
H	-6.3585	-2.6547	-1.2982
H	6.9820	-7.5845	-2.5967
H	-8.1502	-4.1072	-1.3594
H	-5.8014	-7.1732	-0.6778
C	-1.8865	2.4255	-0.1185
C	-2.2998	3.5026	-0.9943
C	-1.6064	3.3622	-2.1442
C	1.8865	-2.4255	0.1185
C	-0.7723	2.1882	-1.9948
O	-1.6336	-5.8544	7.6950
C	2.2998	-3.5026	0.9943
C	0.1099	1.7027	-2.9814
O	-0.0273	-4.6976	8.7479
C	1.6064	-3.3622	2.1442
C	0.9153	0.5583	-2.8655
H	-6.9820	7.5845	2.5967
C	0.7723	-2.1882	1.9948
C	-1.9296	1.2175	2.0657
C	-0.1099	-1.7027	2.9814
C	-2.5180	0.9471	3.3546
C	-0.9153	-0.5583	2.8655
C	1.8985	0.1516	-3.8475
C	1.9296	-1.2175	-2.0657
C	0.2622	2.5227	-4.2238
C	2.5180	-0.9471	-3.3546
C	0.8565	3.7830	-4.1450
C	-1.8985	-0.1516	3.8475
C	1.0343	4.5576	-5.2881
C	-0.2622	-2.5227	4.2238
C	-0.8565	-3.7830	4.1450
C	-1.0343	-4.5576	5.2881
C	-0.1646	2.0530	-5.4665
C	5.5220	-4.9042	-2.2938
H	-0.3247	2.5051	-7.4718
C	5.8015	-3.5682	-2.0316
C	-2.3580	2.2270	1.1887
C	0.1646	-2.0530	5.4665
C	-3.4544	3.1391	1.6460
C	6.6460	-5.8452	-2.5683
C	-3.1761	4.4653	1.9739
*