! UKS B3LYP ma-def2-SVP OPT NumFreq
%basis

end 

%scf
  maxiter 200
end

%pal 
	nprocs 16
end
* xyz 0 1
H	-2.2883	-1.8867	-10.2820
H	-3.8503	10.0415	0.6396
H	-2.4394	1.7273	-4.2120
H	-2.5759	3.6229	-2.6191
H	-1.0365	4.4455	2.4408
H	0.3339	3.1877	4.0685
H	-0.2379	1.0508	5.4192
H	-0.4031	5.5727	0.1806
H	-1.4249	7.6643	0.2609
H	-5.0260	5.9259	-0.4144
H	-4.0168	3.8244	-0.3991
H	-3.2471	0.2458	0.2259
H	-2.6570	0.8293	1.5945
H	-3.5129	0.0476	3.7220
C	-1.5248	0.6188	-2.6066
C	-2.1408	1.7281	-3.3100
C	-2.2111	2.7642	-2.4424
C	-1.6262	2.3204	-1.1963
C	-1.4651	3.1255	-0.0491
C	-0.7679	2.7656	1.1210
C	-0.6566	3.5841	2.3109
C	0.0852	2.8966	3.1984
C	-2.9129	-1.3752	-8.6788
C	-2.1016	4.4742	-0.0852
C	-1.3464	5.6377	0.0866
C	-1.9503	6.8855	0.1215
C	-3.3325	6.9948	-0.0479
C	-4.0905	5.8523	-0.2668
C	-3.4867	4.6021	-0.2698
C	-4.0205	8.3220	0.0356
C	-3.0146	0.0154	1.1605
O	-1.9659	-1.7556	-9.5114
O	-4.0657	-1.2047	-9.0152
N	-1.2248	1.0117	-1.3286
N	-0.0991	1.5801	1.3189
O	-3.2737	9.2800	0.5577
H	-3.6302	-0.6245	-4.2876
O	-5.1632	8.4885	-0.3290
H	-4.3063	-0.8991	-6.4977
H	-0.4518	-1.3840	-7.6257
H	-5.5546	-1.9554	1.6932
H	-4.9933	-1.4372	0.2862
H	-2.7737	-2.0428	-0.4210
H	-1.8599	-2.9630	0.5184
H	-1.2833	-0.5525	3.0040
H	-0.9592	-2.0617	2.5765
H	-4.6710	-1.0585	3.7622
H	-2.7087	-3.7380	2.6277
H	-4.1876	-3.3416	3.0938
Zn	0.0000	0.0000	0.0000
C	-0.4353	-1.6293	-2.5836
C	-1.1895	-0.6154	-3.1966
C	-1.6272	-0.8287	-4.6164
H	3.6302	0.6245	4.2876
C	-2.9787	-0.7762	-4.9623
H	4.3063	0.8991	6.4977
C	-3.3826	-0.9434	-6.2770
H	0.4518	1.3840	7.6257
C	-2.4408	-1.1759	-7.2773
C	-1.0990	-1.2235	-6.9485
C	-0.6885	-1.0364	-5.6307
H	5.5546	1.9554	-1.6932
H	4.9933	1.4372	-0.2862
H	2.7737	2.0428	0.4210
H	1.8599	2.9630	-0.5184
C	-4.7410	-1.6465	1.2207
H	1.2833	0.5525	-3.0040
C	-2.5430	-2.2458	0.5201
H	0.9592	2.0617	-2.5765
C	-1.6536	-1.3553	2.5583
H	4.6710	1.0585	-3.7622
C	-3.8649	-0.7596	3.2710
H	2.7087	3.7380	-2.6277
C	-3.3861	-3.0161	2.6113
H	4.1876	3.3416	-3.0938
N	-1.9748	-1.0291	1.1576
N	-3.7462	-2.7242	1.2208
N	-2.8474	-1.8241	3.3078
N	-4.2369	-0.4211	1.8734
C	0.4353	1.6293	2.5836
C	1.1895	0.6154	3.1966
C	1.6272	0.8287	4.6164
C	2.9787	0.7762	4.9623
C	3.3826	0.9434	6.2770
C	2.4408	1.1759	7.2773
C	1.0990	1.2235	6.9485
C	0.6885	1.0364	5.6307
C	4.7410	1.6465	-1.2207
C	2.5430	2.2458	-0.5201
C	1.6536	1.3553	-2.5583
C	3.8649	0.7596	-3.2710
C	3.3861	3.0161	-2.6113
H	3.8503	-10.0415	-0.6396
N	1.9748	1.0291	-1.1576
H	2.4394	-1.7273	4.2120
N	3.7462	2.7242	-1.2208
H	2.5759	-3.6229	2.6191
H	1.0365	-4.4455	-2.4408
N	2.8474	1.8241	-3.3078
H	-0.3339	-3.1877	-4.0685
N	4.2369	0.4211	-1.8734
H	0.2379	-1.0508	-5.4192
H	0.4031	-5.5727	-0.1806
H	1.4249	-7.6643	-0.2609
H	2.2883	1.8867	10.2820
H	5.0260	-5.9259	0.4144
H	4.0168	-3.8244	0.3991
H	3.2471	-0.2458	-0.2259
H	2.6570	-0.8293	-1.5945
H	3.5129	-0.0476	-3.7220
C	1.5248	-0.6188	2.6066
C	2.1408	-1.7281	3.3100
C	2.2111	-2.7642	2.4424
C	1.6262	-2.3204	1.1963
C	1.4651	-3.1255	0.0491
C	0.7679	-2.7656	-1.1210
C	0.6566	-3.5841	-2.3109
C	-0.0852	-2.8966	-3.1984
C	2.1016	-4.4742	0.0852
C	1.3464	-5.6377	-0.0866
C	1.9503	-6.8855	-0.1215
C	3.3325	-6.9948	0.0479
C	4.0905	-5.8523	0.2668
C	3.4867	-4.6021	0.2698
C	4.0205	-8.3220	-0.0356
C	3.0146	-0.0154	-1.1605
N	1.2248	-1.0117	1.3286
N	0.0991	-1.5801	-1.3189
C	2.9129	1.3752	8.6788
O	3.2737	-9.2800	-0.5577
O	5.1632	-8.4885	0.3290
O	1.9659	1.7556	9.5114
O	4.0657	1.2047	9.0152
*