! UKS B3LYP ma-def2-SVP OPT NumFreq
%basis
NewGTO Pt "ma-def2-TZVP" end
end 

%scf
  maxiter 200
end

%pal 
	nprocs 16
end
* xyz 0 1
H	-7.6262	-0.0420	1.2725
H	-4.7611	1.1164	-1.4546
H	-3.6312	0.5678	-3.5381
H	1.2864	-0.8329	-4.8659
H	3.3957	-1.0692	-3.6632
H	-2.5028	-2.0132	-4.3348
H	-3.3435	-2.2905	-6.4584
H	-1.2566	0.8994	-7.6819
H	-0.4427	1.1838	-5.5448
H	-4.2528	3.0342	1.8675
H	-6.4366	3.5618	2.4343
H	-5.4498	-0.5669	0.6993
C	-2.9321	0.6684	-0.4813
C	-3.8757	0.8452	-1.5445
C	-3.2541	0.5486	-2.6874
C	-1.8991	0.1951	-2.3698
C	-0.9361	-0.1794	-3.2941
C	0.3980	-0.4305	-2.9897
C	-8.6324	2.1724	2.2800
C	1.4087	-0.7428	-3.9479
C	2.5669	-0.8819	-3.2887
C	2.2881	-0.6868	-1.8926
C	-3.2198	0.8294	0.8706
C	-1.3997	-0.3815	-4.7049
C	-2.2583	-1.4165	-5.0053
F	-8.7293	2.5136	3.5591
C	-2.7622	-1.5880	-6.2750
F	-9.0721	3.1523	1.6364
C	-2.3955	-0.7069	-7.2735
F	-9.4999	1.1934	2.1535
C	-1.5175	0.3193	-7.0041
C	-1.0285	0.4847	-5.7263
C	-2.9902	-0.8487	-8.6331
C	-4.6151	1.1671	1.2395
C	-4.9251	2.4025	1.7481
C	-6.2384	2.7210	2.0905
C	-7.2311	1.8032	1.9229
C	-6.9479	0.5818	1.4005
C	-5.6376	0.2695	1.0578
N	-1.7113	0.3027	-1.0107
N	0.9585	-0.3972	-1.7338
F	-4.0084	-1.6344	-8.6820
F	-2.1436	-1.4200	-9.4949
F	-3.2630	0.2747	-9.2106
H	4.7611	-1.1164	1.4546
H	3.6312	-0.5678	3.5381
H	-1.2864	0.8329	4.8659
H	-3.3957	1.0692	3.6632
H	2.5028	2.0132	4.3348
H	3.3435	2.2905	6.4584
H	1.2566	-0.8994	7.6819
H	0.4427	-1.1838	5.5448
H	4.2528	-3.0342	-1.8675
H	6.4366	-3.5618	-2.4343
H	5.4498	0.5669	-0.6993
Pt	0.0000	0.0000	0.0000
C	2.9321	-0.6684	0.4813
C	3.8757	-0.8452	1.5445
C	3.2541	-0.5486	2.6874
C	1.8991	-0.1951	2.3698
C	0.9361	0.1794	3.2941
C	-0.3980	0.4305	2.9897
C	-1.4087	0.7428	3.9479
C	-2.5669	0.8819	3.2887
C	-2.2881	0.6868	1.8926
C	3.2198	-0.8294	-0.8706
C	1.3997	0.3815	4.7049
C	2.2583	1.4165	5.0053
C	2.7622	1.5880	6.2750
C	2.3955	0.7069	7.2735
C	1.5175	-0.3193	7.0041
H	7.6262	0.0420	-1.2725
C	1.0285	-0.4847	5.7263
C	2.9902	0.8487	8.6331
C	4.6151	-1.1671	-1.2395
C	4.9251	-2.4025	-1.7481
C	6.2384	-2.7210	-2.0905
C	7.2311	-1.8032	-1.9229
C	6.9479	-0.5818	-1.4005
C	5.6376	-0.2695	-1.0578
N	1.7113	-0.3027	1.0107
N	-0.9585	0.3972	1.7338
F	4.0084	1.6344	8.6820
F	2.1436	1.4200	9.4949
F	3.2630	-0.2747	9.2106
C	8.6324	-2.1724	-2.2800
F	8.7293	-2.5136	-3.5591
F	9.0721	-3.1523	-1.6364
F	9.4999	-1.1934	-2.1535
*