! UKS B3LYP ma-def2-SVP OPT NumFreq
%basis

end 

%scf
  maxiter 200
end

%pal 
	nprocs 16
end
* xyz 0 1
Zn	-0.1005	-0.0198	-0.1015
H	-3.2878	-4.5761	0.6626
H	-4.3132	-6.3088	1.8317
C	-3.3565	-5.9724	3.5654
C	-2.4390	-5.1974	4.1919
C	-1.8403	-4.1540	3.5105
H	0.8561	-3.8456	-4.1584
H	-4.5917	5.0826	3.4283
H	-3.4440	3.7325	1.9483
H	-1.7580	-0.0996	-1.9471
H	-3.6322	0.7144	-1.0939
C	-2.1464	2.9670	3.2755
H	-2.8475	1.6825	-2.0450
C	-1.7759	3.0191	4.6184
C	-2.4734	3.8429	5.4925
C	-3.5271	4.6050	5.0449
H	0.6685	4.6792	-2.8935
C	-3.8834	4.5634	3.7330
C	1.6955	1.4292	-2.1180
H	-2.6856	1.8089	-0.4908
C	1.6269	-2.1521	-2.2094
C	0.9549	-2.7356	-1.1254
C	-0.3941	2.5801	1.5440
C	1.0211	-4.1196	-0.7143
C	0.1435	-4.2892	0.2999
C	0.1287	3.9310	1.6057
C	-0.4827	-3.0071	0.5550
C	0.9869	4.0926	0.5651
C	1.0086	2.8569	-0.1905
C	-1.5119	-2.7513	1.4844
C	-1.9434	-1.4699	1.8618
C	1.6264	2.6572	-1.4459
C	-3.0862	-1.1588	2.7008
C	-3.0703	0.1674	2.9457
C	-1.9041	0.7228	2.2650
Cl	-4.3002	0.9358	3.8593
H	4.2049	-2.5030	-2.3893
C	-2.1572	-3.9143	2.1838
H	5.4846	-3.7852	-3.8386
C	-3.0751	-4.7238	1.5557
H	4.4500	-5.0976	-5.4478
Cl	-0.1949	5.1825	2.7290
C	-3.6873	-5.7643	2.2514
H	2.1358	-5.1278	-5.6077
C	-1.4392	2.0423	2.3264
H	1.7316	6.4883	-3.8831
H	4.0253	6.7519	-3.6563
H	5.2559	5.2066	-2.4399
C	2.2330	1.1950	-3.4530
H	4.1928	3.3975	-1.4504
C	2.2372	-0.1383	-3.6661
C	1.7033	-0.7758	-2.4770
C	-3.1949	3.7496	2.8441
C	-2.8102	1.1950	-1.2193
N	1.3369	0.2172	-1.5880
N	0.0678	-2.0835	-0.2962
N	-1.2787	-0.2952	1.5833
C	1.5873	4.7844	-2.8032
Cl	-0.0198	-5.7712	1.1455
Cl	-4.3632	-2.1739	3.2294
N	0.2070	1.9427	0.4666
O	-1.7939	0.3353	-1.2550
H	-3.7689	-6.6597	4.0354
H	-2.2143	-5.3660	5.0792
H	-1.2216	-3.6117	3.9434
C	2.4030	-3.0475	-3.1304
C	3.7905	-3.0288	-3.0346
C	4.5569	-3.7967	-3.9031
C	3.9372	-4.5831	-4.8678
C	2.5512	-4.6018	-4.9620
C	1.7834	-3.8340	-4.0951
H	-1.0649	2.5057	4.9273
H	-2.2266	3.8788	6.3884
H	-3.9943	5.1486	5.6382
C	2.3252	3.8587	-2.0737
C	2.2249	5.8694	-3.3951
Cl	2.7043	-0.8324	-5.1678
C	3.5989	6.0273	-3.2592
Cl	2.0471	-5.3788	-1.2643
C	4.3368	5.1002	-2.5317
C	3.6992	4.0166	-1.9377
Cl	1.8242	5.5626	0.3021
Cl	2.7299	2.3111	-4.6596
*