! UKS B3LYP ma-def2-SVP OPT NumFreq
%basis

end 

%scf
  maxiter 200
end

%pal 
	nprocs 16
end
* xyz 0 1
Zn	-0.0381	-0.0337	-0.1197
H	-4.4622	-3.1951	-2.0246
H	-6.1453	-4.7948	-1.8329
H	-6.6239	-5.7479	0.2433
H	-5.3749	-5.1591	2.1128
C	2.0453	-0.3925	-2.3708
H	-3.5884	-3.6631	1.8974
C	2.6851	-0.0296	-3.5496
H	1.8216	-4.6986	2.6765
C	2.0197	0.7497	-4.4868
H	3.3510	-6.3870	3.1785
C	0.7166	1.1647	-4.2487
H	5.3566	-6.5221	2.0184
H	5.8673	-4.9495	0.3757
C	0.0747	0.8018	-3.0693
H	4.3727	-3.2145	-0.0782
H	-2.6372	5.0124	0.4579
H	-4.1314	6.7105	-0.0993
H	-5.5722	6.4526	-1.9216
H	-5.4832	4.5187	-3.2104
H	-3.9617	2.8247	-2.6911
N	-2.1224	0.1375	-0.3517
N	-0.2983	-2.0737	0.2413
N	1.8143	-0.1739	0.8444
N	0.7401	0.0224	-2.1291
H	4.8484	2.3893	-0.3096
H	6.6435	3.7930	0.1556
Cl	4.4603	-1.9851	3.2117
H	6.4801	5.3749	1.8641
H	4.5066	5.5935	3.0547
Cl	1.2802	-5.6451	-0.5599
H	2.6653	4.2562	2.5501
N	0.0702	2.0562	0.0622
Cl	4.8659	1.2295	3.0202
Cl	-5.8625	-1.0189	0.3988
H	2.4989	-0.9249	-1.7268
Cl	-1.9204	-5.4344	-1.1503
H	3.5768	-0.3131	-3.7115
H	2.4582	0.9980	-5.2942
H	-0.8163	1.0857	-2.9073
Cl	-0.7126	5.3423	-2.0678
Cl	2.3543	5.1681	-0.9313
C	-2.8007	1.3454	-0.3657
C	-4.1973	1.0808	-0.0679
C	-4.3441	-0.2653	0.0276
C	-3.0374	-0.8827	-0.1444
C	-2.7273	-2.2650	-0.1619
Cl	-5.4356	2.2072	0.3367
H	0.2616	1.6975	-4.8921
C	-1.4095	-2.7855	-0.1568
C	-1.0023	-4.1490	-0.4369
C	0.3325	-4.2415	-0.1732
C	0.7699	-2.9489	0.3276
C	1.9987	-2.6496	0.9543
C	2.3905	-1.3353	1.3197
C	1.2785	2.7118	0.1322
C	3.5299	-0.9651	2.1470
C	3.6615	0.3810	2.0892
C	1.1340	3.9885	-0.5658
C	2.5950	0.8958	1.2497
C	-0.1340	4.0666	-1.0068
C	-0.8420	2.8709	-0.5748
C	-2.2224	2.6034	-0.6580
C	-3.8511	-3.2699	-0.0805
C	-4.6281	-3.6082	-1.1857
C	-5.6397	-4.5452	-1.0684
C	-5.9166	-5.1177	0.1624
C	-5.1741	-4.7780	1.2664
C	-4.1235	-3.8714	1.1407
C	2.9594	-3.7658	1.2551
C	2.6530	-4.7346	2.2181
C	3.5539	-5.7467	2.5074
C	2.4251	2.2289	0.7997
C	4.7436	-5.8233	1.8235
C	-3.1591	3.7297	-1.0370
C	5.0491	-4.8893	0.8547
C	4.1547	-3.8613	0.5825
C	-3.2154	4.9038	-0.2879
C	-4.1043	5.9145	-0.6173
C	-4.9537	5.7656	-1.7035
C	-4.9019	4.6175	-2.4654
C	-4.0039	3.6054	-2.1504
C	3.5693	3.1803	1.0595
C	4.7660	3.0516	0.3671
C	5.8374	3.8743	0.6518
C	5.7385	4.8185	1.6592
C	4.5681	4.9486	2.3606
C	3.4766	4.1490	2.0676
*