! UKS B3LYP ma-def2-SVP OPT NumFreq
%basis

end 

%scf
  maxiter 200
end

%pal 
	nprocs 16
end
* xyz 0 1
H	2.5492	-1.6778	-0.6617
C	2.6677	-5.8672	3.4811
C	1.6849	-5.2622	2.6938
C	-3.9716	-2.3688	-1.9951
C	-4.6529	-3.5579	-2.1231
C	-5.8695	-3.5951	-2.7721
C	-6.4167	-2.4619	-3.2844
C	2.1143	0.3291	1.9853
C	3.0337	-0.4830	2.7689
C	2.5948	-1.7534	2.7052
C	1.4360	-1.7266	1.8793
C	-2.7066	-2.0338	-1.3133
C	-2.5791	-0.6435	-1.4797
C	-3.6581	-0.0676	-2.2106
C	2.8026	-3.1541	3.0867
C	-3.4475	1.2563	-2.2411
C	-2.2085	1.4995	-1.5018
C	-1.6031	2.7141	-1.2097
C	-0.4626	2.8770	-0.3829
C	0.2311	4.0997	-0.1157
C	1.2734	3.8182	0.6745
C	1.2479	2.4105	0.9226
C	2.1724	1.6833	1.7280
C	3.6820	-5.1378	4.0568
C	-5.7622	-1.2334	-3.1838
C	-4.5532	-1.1891	-2.5420
C	-2.2385	3.9427	-1.7975
H	4.3268	-5.5612	4.5756
C	-2.3336	4.0823	-3.1664
C	-2.9571	5.1829	-3.7142
C	-2.7729	4.9199	-1.0023
C	3.3242	2.4360	2.3125
C	4.3560	2.8863	1.5086
C	5.4464	3.5227	2.0470
C	5.5309	3.7263	3.3906
C	4.5075	3.3133	4.2102
C	3.4138	2.6641	3.6610
C	1.9769	0.6607	-2.2510
C	3.3578	-1.1915	-2.3633
C	2.2599	-1.5102	-1.5724
N	1.1332	-0.5016	1.4492
N	-0.7728	-2.2467	0.1109
N	-1.7027	0.2802	-1.0619
N	0.1872	1.8555	0.2763
O	1.3416	-0.4399	-1.5926
H	-7.2427	-2.5061	-3.7100
H	-6.1392	-0.4632	-3.5454
H	-3.0211	5.2655	-4.6392
H	-3.9042	6.8977	-3.2750
H	-3.7298	6.6860	-0.9963
H	3.0646	0.1860	-3.8033
H	3.8996	0.7351	-2.5883
H	3.4241	-1.8023	-3.1143
H	-0.6368	-5.3379	0.9061
H	-2.5080	-4.8271	-0.6014
H	4.4150	-3.2868	4.2556
H	2.6358	-6.7863	3.6197
H	0.9977	-5.7683	2.3265
H	-4.2917	-4.3397	-1.7710
C	-3.4827	6.1555	-2.9043
H	-6.3201	-4.4048	-2.8605
C	-3.3836	6.0252	-1.5519
C	3.1464	0.1767	-2.8373
Zn	-0.1456	-0.1859	0.0072
H	3.7844	-0.1805	3.2281
H	-3.9835	1.8951	-2.6526
H	-0.0026	4.9409	-0.4361
H	1.8976	4.4255	1.0015
C	0.9043	-3.0099	1.6583
C	-0.1732	-3.2495	0.8217
C	-0.8599	-4.5025	0.5640
C	-1.8855	-4.2210	-0.2682
H	-1.9743	3.4296	-3.7234
C	-1.8375	-2.8028	-0.5455
H	-2.7225	4.8362	-0.0780
H	4.3096	2.7560	0.5892
H	6.1310	3.8159	1.4899
H	6.2797	4.1439	3.7529
H	4.5484	3.4692	5.1254
H	2.7270	2.3767	4.2193
H	2.1863	1.3587	-1.6121
H	1.3905	1.0295	-2.9298
C	1.7488	-3.9139	2.4719
H	4.1769	-1.2473	-1.8461
C	3.7359	-3.7824	3.8596
H	1.8346	-2.3142	-1.9079
*