! UKS B3LYP ma-def2-SVP OPT NumFreq
%basis

end 

%scf
  maxiter 200
end

%pal 
	nprocs 16
end
* xyz 0 1
C	-3.1773	0.8165	2.7789
Ni	0.5163	-0.1032	-0.3486
N	1.5834	-1.6844	-0.7995
N	-0.6003	-1.2150	0.8314
C	3.3889	-0.6142	-2.1114
C	2.7190	-1.7305	-1.6142
C	-2.8801	0.9849	4.1287
C	3.1202	-3.0792	-1.8541
C	-5.5008	1.2286	3.3399
H	2.2400	-4.8221	-1.1525
C	-4.5021	0.9535	2.3943
H	-1.4680	-3.8226	2.5502
C	0.4368	4.5684	-1.9884
H	-2.6390	-1.7788	3.2995
C	0.4301	5.7060	-1.1614
C	0.4362	6.9829	-1.7187
C	0.4703	7.1558	-3.0896
C	0.4906	6.0474	-3.9298
C	0.4711	4.7649	-3.3774
H	2.2094	-5.1141	1.4074
N	1.6940	1.0321	-1.4492
C	3.5474	1.8047	-2.6436
C	2.9219	0.6795	-2.0091
H	2.1746	-7.3859	1.8520
H	-1.6795	-7.5689	0.6977
H	0.2251	-8.6391	1.4986
N	-0.6010	1.4555	0.0169
H	-1.6605	-5.2679	0.2647
H	-3.0750	3.1130	1.2958
H	-1.8360	4.4157	-0.4046
H	-1.9766	0.9243	4.4158
H	-6.4010	1.3286	3.0555
H	-4.7370	0.8580	1.4791
H	0.5183	6.1619	-4.8723
C	2.2407	-3.8720	-1.1745
H	0.4224	5.6027	-0.2168
C	1.3202	-3.0107	-0.5030
C	-3.8752	1.2410	5.0652
H	0.4806	8.0306	-3.4577
C	0.3412	-3.4655	0.4166
H	-3.6450	1.3376	5.9810
C	-0.5005	-2.5851	1.0863
H	0.4160	7.7431	-1.1502
C	-1.3687	-2.9523	2.1825
H	0.4801	4.0103	-3.9528
C	1.5578	2.3685	-1.7650
C	-2.0101	-1.8428	2.5903
C	-1.5555	-0.7647	1.7363
C	2.7085	2.8491	-2.5082
O	4.5641	-0.7647	-2.8263
H	3.8536	-3.3678	-2.3838
C	-5.1898	1.3566	4.6785
C	0.2942	-4.9355	0.7513
H	4.8387	-1.5542	-2.7503
C	1.4108	-5.6048	1.2494
H	-5.8707	1.5217	5.3217
C	1.3924	-6.9614	1.5218
C	0.2380	-7.7071	1.3164
H	2.8429	3.7307	-2.8355
C	-0.8837	-7.0703	0.8438
H	4.3920	1.8115	-3.0785
C	-0.8689	-5.6924	0.5736
C	-2.0993	0.5166	1.7694
C	-1.6909	1.5206	0.8902
C	-2.3198	2.8177	0.8007
C	-1.6343	3.5319	-0.1191
C	-0.5411	2.7166	-0.5894
C	0.4683	3.1737	-1.4316
*