! UKS B3LYP ma-def2-SVP OPT NumFreq
%basis
NewGTO Os "ma-def2-TZVP" end
end 

%scf
  maxiter 200
end

%pal 
	nprocs 16
end
* xyz 0 1
H	-1.3231	0.4225	-4.9394
H	-3.4882	0.3507	-3.7661
H	-4.9683	0.2105	1.3866
H	-3.7485	0.2418	3.4657
H	1.9132	2.3333	-4.7031
H	2.3618	2.5430	-6.9358
H	1.3486	-1.2278	-7.5026
H	0.9156	-1.4409	-5.2624
H	2.7438	0.1978	-9.3358
H	2.6504	1.7473	-9.1198
H	1.3670	0.9309	-9.4941
H	-5.0914	-1.7374	-0.7232
H	-7.2565	-1.9400	-1.4846
H	-7.1150	1.6848	-2.9567
H	-4.9782	1.9778	-2.1876
H	-9.3862	0.5313	-2.5681
H	-9.3055	-1.0275	-2.4247
H	-8.8824	-0.3419	-3.7683
H	-1.8424	-2.5666	1.7066
H	1.8424	-2.5666	-1.7066
H	-3.7032	-3.9007	1.3816
H	-4.2367	-4.6187	-0.7347
H	-2.8825	-4.1011	-2.5333
H	2.8825	-4.1011	2.5333
C	7.4249	-0.1299	2.2873
H	-0.9835	-2.7970	-2.1854
H	0.9835	-2.7970	2.1854
C	6.7145	0.9888	2.4881
C	8.8909	-0.2539	2.8120
Os	0.0000	0.1859	0.0000
C	0.9552	0.3414	-3.2801
C	-0.9552	0.3414	3.2801
C	-0.4090	0.3588	-3.0107
C	0.4090	0.3588	3.0107
C	-1.4490	0.3866	-4.0195
C	-2.6476	0.3495	-3.3677
C	2.6476	0.3495	3.3677
C	-2.3787	0.3067	-1.9510
C	2.3787	0.3067	1.9510
C	-3.3353	0.2488	-0.9660
C	3.3353	0.2488	0.9660
C	-3.0735	0.2557	0.3925
C	3.0735	0.2557	-0.3925
C	-4.0429	0.2337	1.4778
C	-3.3721	0.2534	2.6160
C	3.3721	0.2534	-2.6160
C	-1.9769	0.2928	2.3264
C	1.9769	0.2928	-2.3264
C	1.3316	0.4260	-4.7212
C	1.7844	1.5991	-5.2593
C	2.0589	1.7265	-6.6108
C	1.8948	0.6819	-7.4865
C	1.4646	-0.4913	-6.9462
C	1.1972	-0.6163	-5.5900
C	2.1934	0.9112	-9.0066
C	-4.7561	0.1665	-1.3779
H	4.9683	0.2105	-1.3866
C	-5.4877	-1.0263	-1.1712
H	3.7485	0.2418	-3.4657
C	-6.7980	-1.1444	-1.6316
C	-7.4249	-0.1299	-2.2873
C	-6.7145	0.9888	-2.4881
C	-5.4084	1.1683	-2.0383
C	-8.8909	-0.2539	-2.8120
C	0.0000	-1.7177	0.0000
C	-1.2071	-2.5365	-0.1963
C	1.2071	-2.5365	0.1963
C	-2.0405	-2.8758	0.8536
C	2.0405	-2.8758	-0.8536
C	-3.1655	-3.6679	0.6599
C	3.1655	-3.6679	-0.6599
H	5.0914	-1.7374	0.7232
C	-3.4740	-4.1045	-0.6024
C	3.4740	-4.1045	0.6024
H	7.2565	-1.9400	1.4846
C	-2.6717	-3.7942	-1.6804
C	2.6717	-3.7942	1.6804
C	-1.5325	-3.0078	-1.4656
C	1.5325	-3.0078	1.4656
H	4.9782	1.9778	2.1876
N	-1.0189	0.3032	-1.7631
N	1.0189	0.3032	1.7631
N	-1.7490	0.2777	0.9795
N	1.7490	0.2777	-0.9795
H	3.7032	-3.9007	-1.3816
N	0.0000	2.5036	0.0000
H	1.3231	0.4225	4.9394
H	4.2367	-4.6187	0.7347
H	3.4882	0.3507	3.7661
H	-1.9132	2.3333	4.7031
H	-2.3618	2.5430	6.9358
H	-1.3486	-1.2278	7.5026
H	-0.9156	-1.4409	5.2624
H	-2.7438	0.1978	9.3358
H	-2.6504	1.7473	9.1198
H	-1.3670	0.9309	9.4941
C	4.0429	0.2337	-1.4778
H	-1.8920	2.6877	-0.4384
H	1.8920	2.6877	0.4384
H	-1.9047	5.0086	-0.4550
H	1.9047	5.0086	0.4550
H	0.0000	6.1968	0.0000
C	4.7561	0.1665	1.3779
C	5.4877	-1.0263	1.1712
C	6.7980	-1.1444	1.6316
C	1.4490	0.3866	4.0195
C	5.4084	1.1683	2.0383
C	-1.3316	0.4260	4.7212
C	-1.7844	1.5991	5.2593
C	-2.0589	1.7265	6.6108
C	-1.8948	0.6819	7.4865
C	-1.4646	-0.4913	6.9462
C	-1.1972	-0.6163	5.5900
C	-2.1934	0.9112	9.0066
C	-1.1080	3.1568	-0.2584
C	1.1080	3.1568	0.2584
C	-1.1137	4.5581	-0.2653
C	1.1137	4.5581	0.2653
C	0.0000	5.2668	0.0000
H	7.1150	1.6848	2.9567
H	9.3862	0.5313	2.5681
H	9.3055	-1.0275	2.4247
H	8.8824	-0.3419	3.7683
*