! UKS B3LYP ma-def2-SVP OPT NumFreq
%basis
NewGTO I "ma-def2-TZVP" end
end 

%scf
  maxiter 200
end

%pal 
	nprocs 16
end
* xyz 0 1
Zn	-0.6268	0.8723	0.1884
H	4.4151	-3.5969	-3.5094
H	2.7753	-6.1898	-0.9197
H	-5.7594	0.6521	0.5167
H	-5.1827	2.9929	1.3085
H	-0.7271	5.3150	2.8461
H	1.7938	4.7111	2.8024
H	-0.5638	-3.9891	-1.6160
H	-2.9857	-3.5004	-1.2532
H	-2.3620	5.9282	0.6713
H	-3.5304	7.8006	1.2222
H	-5.4465	5.8317	4.0060
H	-4.3610	3.8862	3.5914
H	3.6251	4.4512	0.5460
H	3.9775	1.6886	3.4885
H	2.9551	-1.9238	-2.7354
H	1.3797	-4.4840	-0.1341
H	-5.3770	-1.9113	1.5577
H	-7.4576	-2.8249	1.2099
H	-6.7947	-2.6210	-2.8368
H	-4.7052	-1.7526	-2.4492
H	-2.9128	1.8038	-1.7015
H	-3.2018	2.6162	-3.8166
H	-1.4321	3.1719	-5.1588
H	0.7710	2.7547	-4.3274
H	0.9732	1.9096	-2.1873
C	-3.6510	0.3237	0.4549
C	-4.8898	1.0054	0.6602
C	-4.5812	2.2832	1.1123
C	-3.1461	2.2941	1.2195
C	-2.4285	3.4349	1.6898
C	-1.0181	3.5034	1.7730
C	-0.3322	4.5477	2.4500
C	1.0685	4.2271	2.4239
C	1.1009	3.0209	1.6972
C	5.5161	2.9555	3.3927
C	2.4191	1.0567	0.7391
C	3.6660	0.3392	0.5984
C	3.3387	-0.8218	-0.0091
C	3.7898	-3.7977	-2.8229
C	1.9294	-0.8374	-0.2473
C	1.2367	-1.9502	-0.7630
C	-0.2282	-2.0685	-0.7569
C	-0.9358	-3.2016	-1.2385
C	-2.2567	-2.9292	-1.0472
C	-2.3357	-1.5969	-0.4659
C	-3.5098	-0.9541	-0.1377
C	-3.1827	4.6255	2.0447
C	-3.0003	5.8784	1.3721
C	-3.6932	6.9928	1.6940
C	-4.1606	4.6613	3.0795
C	3.5796	2.9244	1.8860
C	4.1275	4.0263	1.2309
C	-4.8001	5.8333	3.3115
C	4.3288	2.4248	3.0001
C	2.0259	-3.0444	-1.3301
C	2.9219	-2.7907	-2.3481
C	1.9942	-4.2879	-0.8326
C	-4.8205	-1.6934	-0.3704
C	-5.6690	-2.0576	0.6655
C	-6.8928	-2.6117	0.4746
C	-7.2959	-2.8592	-0.8577
C	-6.4885	-2.4934	-1.9481
C	-5.2728	-1.9580	-1.7145
C	-2.1525	1.9781	-2.2428
C	-2.3183	2.4824	-3.4941
C	-1.2902	2.8014	-4.2959
C	0.0002	2.5649	-3.8065
C	0.0976	2.0435	-2.5302
C	2.3003	2.2925	1.4284
I	7.9701	4.7852	3.1107
I	5.1390	-6.5251	-2.8435
I	-9.2067	-3.6923	-1.2104
N	-2.5884	1.1019	0.7893
N	-0.1359	2.5509	1.3070
N	1.3981	0.3517	0.2547
N	-1.0766	-1.1207	-0.3156
N	-4.6236	6.9663	2.6840
N	-0.8942	1.7166	-1.7524
C	5.3764	4.5181	1.5460
C	6.0461	4.0014	2.6449
C	3.7358	-5.0957	-2.2893
C	2.8404	-5.3229	-1.3034
H	4.5288	0.6240	0.8749
H	3.9458	-1.5160	-0.2419
H	5.7728	5.2014	1.0186
H	5.9725	2.6225	4.1578
*