! UKS B3LYP ma-def2-SVP OPT NumFreq
%basis

end 

%scf
  maxiter 200
end

%pal 
	nprocs 16
end
* xyz 0 1
H	3.1430	-3.1995	5.4547
H	3.1681	-2.7675	7.0849
H	1.8952	-2.3026	6.1563
H	5.8019	-1.9725	4.7501
H	6.1076	-0.4119	5.0741
H	5.9527	-1.7253	6.3697
H	-6.3309	1.2196	-1.5770
H	3.9846	0.2068	7.7283
H	-5.4578	0.4160	-3.7899
H	4.0453	1.2801	6.5313
H	-0.6738	-0.6815	-5.6486
H	1.5539	-1.3036	-4.6104
H	2.7326	0.6234	6.9663
H	2.3495	2.9098	2.0512
H	3.5136	3.9658	3.7521
H	2.7221	3.8673	5.9308
H	0.8190	2.6108	6.3938
H	-0.3618	1.4944	4.6788
H	-5.8179	1.2680	2.4656
H	-7.6729	2.3965	3.3159
H	-8.5041	4.2440	2.1270
H	-7.5640	4.8368	0.1300
H	-5.7991	3.7117	-0.7385
H	3.9532	-0.0956	-1.9311
C	1.3678	-0.7051	-0.4657
C	2.3306	-0.9965	0.5725
C	1.9582	-0.2380	1.6661
C	0.7750	0.4891	1.2839
C	0.1553	1.4631	2.0661
C	-1.1331	1.8933	1.7973
C	-1.8739	2.7878	2.6474
H	-4.6517	-1.5784	-4.9127
C	-3.1525	2.7588	2.2220
H	-5.6169	-1.4920	-7.0580
C	-3.1952	1.9071	1.0617
H	-4.8192	-0.0679	-8.7087
C	-4.3415	1.7199	0.3004
H	-3.1569	1.3648	-8.1395
C	-4.2958	1.0993	-0.9388
H	-2.1519	1.4114	-6.0637
H	1.9852	-3.4881	-2.7788
H	3.9030	-4.4525	-3.5527
H	5.8878	-3.3222	-3.5667
H	5.9296	-1.0669	-2.7955
C	1.5103	-1.0650	-1.8006
C	3.4049	-1.9258	0.5701
C	4.3209	-2.7058	0.6636
C	5.0932	-5.5254	-0.0201
C	7.1953	-3.3018	-0.0292
C	5.9782	-4.2435	2.6124
C	2.5756	-0.3144	2.9496
C	3.1386	-0.4786	4.0081
C	2.9445	-2.4718	6.1551
C	5.6725	-1.3088	5.4361
C	-5.4291	0.9913	-1.8149
C	3.6404	0.4428	6.8620
C	-4.9790	0.5357	-2.9938
C	0.8942	2.0941	3.2002
C	-3.5593	0.3304	-2.8556
C	2.0428	2.8379	2.9256
C	-2.7184	-0.0094	-3.9033
C	2.7163	3.4945	3.9508
C	-1.3624	-0.2466	-3.7069
C	2.2454	3.4248	5.2480
C	-0.4655	-0.6623	-4.7444
C	1.1090	2.6843	5.5370
C	0.7036	-0.9870	-4.1492
C	0.4388	2.0161	4.5170
C	-5.6062	2.3594	0.7861
C	0.5355	-0.7604	-2.7412
C	-6.1734	1.9864	1.9959
C	-7.2711	2.6756	2.5057
C	-7.8088	3.7397	1.8036
C	-7.2657	4.1054	0.5891
C	-6.1713	3.4210	0.0760
N	0.3672	0.1216	0.0155
N	-1.9446	1.3974	0.7834
H	7.9898	-3.8632	0.1860
H	7.4078	-2.4495	0.3130
C	-3.2862	-0.0781	-5.2893
C	-4.3086	-0.9715	-5.6050
C	-4.8896	-0.9588	-6.8708
C	-4.4281	-0.0814	-7.8361
C	-3.3955	0.7877	-7.5503
C	-2.8256	0.7989	-6.2749
C	2.7655	-1.7120	-2.2869
C	2.7603	-3.0213	-2.7745
C	3.9327	-3.5991	-3.2437
C	5.1104	-2.8827	-3.2565
C	5.1286	-1.5800	-2.7818
C	3.9622	-0.9984	-2.2932
N	-3.1420	0.6533	-1.5744
N	-0.7261	-0.2577	-2.4778
Si	5.6667	-3.9579	0.8032
Si	3.8645	-0.9329	5.6378
Ni	-1.3665	0.4735	-0.8144
H	-1.5029	3.2848	3.3607
H	-3.9127	3.2468	2.5945
H	4.2903	-5.8748	0.4345
H	4.8493	-5.3183	-0.9472
H	5.7412	-6.1375	0.0266
H	7.0288	-3.1995	-1.0152
H	6.5975	-4.9882	2.7783
H	6.3547	-3.4812	3.0062
H	5.1717	-4.4404	3.0805
*