! UKS B3LYP ma-def2-SVP OPT NumFreq
%basis
NewGTO Rh "ma-def2-TZVP" end
end 

%scf
  maxiter 200
end

%pal 
	nprocs 16
end
* xyz 0 1
H	4.8195	0.0100	-1.0326
H	3.0310	0.1054	-4.0812
H	1.1331	-1.2531	-4.9426
H	-3.8712	-2.0694	-3.4068
H	-5.2370	-1.4108	-1.4333
H	-8.8340	-0.5476	1.9843
H	-7.2129	-2.0334	2.7777
H	-4.9437	-1.7567	2.0881
H	0.5761	3.4603	6.6821
H	0.3225	2.0381	4.8306
H	-1.3218	-0.6748	-5.9696
H	-1.7661	-2.1095	-7.8006
H	0.7170	-2.0403	-1.1365
H	2.1525	-3.5344	-0.1301
H	-2.1440	-4.3535	-7.4217
H	0.3142	-0.0523	2.2301
H	-2.0976	-5.1946	-5.3179
H	-1.6649	-3.8208	-3.4721
H	3.5846	-6.6043	3.4523
H	-6.0377	1.4391	-0.1019
H	-8.1942	1.2274	0.7030
H	2.3050	-2.1039	4.2776
H	5.5671	-5.7438	4.2643
H	0.8480	-1.4510	4.3798
H	6.0942	-3.4916	3.7735
H	2.1143	-0.5323	4.0416
H	1.4994	-6.4439	2.4323
H	1.4795	-5.4395	1.1847
H	0.8082	-5.0064	2.5733
H	5.1063	-1.1438	3.1967
H	4.0421	-1.1577	2.0022
H	5.5339	-1.6765	1.7499
C	0.1070	4.8798	3.3035
C	0.2761	5.7237	4.3999
Rh	-0.6174	0.6805	-0.5131
C	0.4800	5.2132	5.6441
C	0.9341	2.4919	1.3930
C	2.2602	3.0619	1.5238
C	3.0045	2.6718	0.4852
C	2.1873	1.8749	-0.3919
C	2.5851	1.3243	-1.5892
C	1.7812	0.5564	-2.4031
C	-3.4469	-0.4812	-0.6954
C	-3.8364	0.0709	0.5131
C	-3.0209	0.8387	1.3763
C	-3.4585	1.4377	2.6036
C	-2.4424	2.1350	3.0764
C	-1.3334	2.0035	2.1646
C	-0.1002	2.6316	2.2923
C	2.1873	-0.0108	-3.6615
C	1.1430	-0.7426	-4.1440
C	0.0556	-0.5946	-3.2117
C	3.9626	1.5636	-2.0244
C	-1.1975	-1.1978	-3.3171
C	4.3040	2.5735	-2.9143
C	-2.2468	-1.0650	-2.4038
C	5.6036	2.7783	-3.3730
C	-3.5778	-1.5782	-2.6484
C	6.5865	1.9441	-2.9762
C	6.3445	0.9189	-2.0816
C	-4.3187	-1.2171	-1.5759
C	5.0068	0.7280	-1.6267
C	-5.3166	-0.1021	0.9739
C	-6.2581	0.7501	0.5114
C	-7.5411	0.5869	0.9595
C	-7.9207	-0.4369	1.7464
C	-6.9692	-1.3195	2.2009
C	-5.6183	-1.1549	1.7967
C	0.1120	3.5433	3.4443
C	-1.4395	-2.0749	-4.5506
C	-1.4776	-1.5990	-5.8138
C	-1.7429	-2.4553	-6.9162
C	0.4700	3.8297	5.8134
C	-1.9666	-3.7738	-6.6905
C	0.3043	2.9817	4.7178
C	0.8828	-1.9642	-0.2042
C	-1.9385	-4.2677	-5.4523
C	-1.6799	-3.4528	-4.3473
C	1.7729	-2.8289	0.3817
C	2.1276	-2.6836	1.7264
C	1.4977	-1.6612	2.4557
C	0.6424	-0.8187	1.7755
C	3.1437	-3.5649	2.3729
C	2.8437	-4.9221	2.6077
C	3.7819	-5.6885	3.2990
C	4.9671	-5.2001	3.7680
C	1.7082	-1.4164	3.9144
C	5.2638	-3.8485	3.4807
C	4.3852	-3.0184	2.7889
C	1.5458	-5.5031	2.1619
N	0.9259	1.7753	0.2050
C	4.8030	-1.6280	2.4008
N	0.4601	0.1912	-2.1677
N	-2.2003	-0.4037	-1.2306
H	-0.0140	5.2574	2.4407
N	-1.7196	1.1638	1.1280
H	0.2479	6.6658	4.2765
N	0.2413	-1.0179	0.4882
H	0.6292	5.7887	6.3843
Cl	-1.4226	2.5488	-1.6012
H	2.5536	3.6222	2.2326
H	3.9211	2.8848	0.3453
H	-4.3171	1.3492	3.0022
H	-2.4407	2.6372	3.8823
H	3.6178	3.1532	-3.2240
H	5.7958	3.4991	-3.9608
H	7.4634	2.0644	-3.3199
H	7.0490	0.3572	-1.7811
*