! UKS B3LYP ma-def2-SVP OPT NumFreq
%basis
NewGTO Ir "ma-def2-TZVP" end
end 

%scf
  maxiter 200
end

%pal 
	nprocs 16
end
* xyz 0 1
H	1.5006	1.8629	-0.7109
H	3.4716	-2.3647	-4.3629
H	4.9368	-2.2210	-3.8000
H	5.5820	-3.8884	-5.0519
H	4.1111	-4.0320	-5.6150
H	4.8772	-6.0289	-4.1462
H	5.7327	-4.3615	-2.5768
H	-0.2516	-2.5393	-4.4204
H	4.6459	-5.2741	-1.8545
H	-1.5871	-0.5114	-4.8315
H	-2.8122	3.7921	-1.9812
H	-2.5059	4.4794	0.3221
H	-3.9173	2.0938	3.0317
H	-5.8010	3.2176	2.0829
H	-4.5788	3.9893	1.4453
H	-5.1433	5.8482	2.5864
H	-6.3886	5.0877	3.1948
C	2.5355	-1.7394	3.8269
C	2.1832	-2.7026	4.7408
C	3.0886	-3.2518	5.6778
H	1.1876	4.4653	2.0269
C	4.3962	-2.7928	5.7114
C	4.7438	-1.8408	4.8343
H	0.2851	6.8396	1.7278
C	3.8605	-1.3085	3.8896
H	-0.0702	7.8760	3.9509
C	2.3262	-4.2094	6.4946
C	6.1042	-1.1789	4.4926
H	1.7089	6.9550	2.4273
C	0.0518	1.6685	3.9627
C	6.5997	-1.7957	3.1692
H	2.2130	-0.0242	-2.1552
C	0.8371	0.6152	4.1702
H	2.8869	1.3925	-2.1865
C	0.9245	-0.1284	2.9268
H	4.5767	0.7250	-1.1535
C	1.6513	-1.3029	2.7177
H	4.1015	-0.7029	-1.5926
C	4.6353	-0.3453	3.0128
H	3.7357	-0.1594	-0.1690
C	5.5992	-1.1930	2.1300
C	5.6549	0.2349	4.0463
C	-2.7901	3.9386	3.2483
H	-0.5454	-7.4991	-4.8309
C	-3.1886	5.0370	4.0735
H	-1.5804	-8.1356	-2.7756
C	2.2658	-3.2856	1.4096
C	-2.3398	6.1017	4.2671
C	1.9710	-3.7363	0.1517
C	-1.0591	5.9946	3.7611
C	-0.6606	4.8821	3.0776
H	-0.6866	-6.2936	-1.0859
H	-1.6697	-4.3587	-2.5140
H	-2.1901	-6.5190	-1.5215
H	-1.5478	-5.1389	-4.8903
H	-0.0827	-7.9103	-2.3445
H	-2.5693	-6.0824	-4.1094
H	-4.4607	3.5894	-6.6170
C	-4.6623	4.8680	4.3945
C	-4.6969	3.3302	4.5825
H	0.1881	1.9952	-4.8052
H	0.7786	4.2766	-5.1388
H	-0.5070	4.3977	-4.2294
C	1.0983	6.3411	4.7927
C	1.5486	5.0201	4.0805
H	-0.3150	5.2145	-6.8217
H	-1.5910	5.3609	-5.9045
C	0.8266	5.0314	2.7408
C	0.8170	6.5833	2.4981
H	-1.9088	3.7302	-7.8946
H	-0.7643	1.5812	-7.0991
H	0.3600	2.7022	-7.2284
H	-6.6891	3.1246	-4.9785
H	-6.1966	0.6715	-5.5625
H	-7.4389	0.8771	-4.6083
H	-5.0867	-0.3424	-3.9046
C	0.8179	-3.3814	5.0421
H	-6.3320	-0.1453	-2.9541
H	-4.6662	1.2601	-1.9243
C	0.3830	-2.7815	6.3851
H	-5.6484	3.4908	-2.6654
C	1.3882	-3.4265	7.3931
H	-6.8514	2.4600	-2.4944
H	-1.7283	-1.9563	0.7934
C	1.3393	-4.8206	5.4410
H	-2.5588	-0.9649	-0.0914
H	-2.2698	-0.6213	1.4111
Ir	-0.1571	-0.0586	0.0574
C	-1.1176	2.6233	1.9729
C	-0.3678	1.6573	2.6021
C	1.6196	-2.0295	1.5779
C	2.5077	-4.2573	-2.9304
C	2.9013	-5.3445	-3.7188
C	1.9864	-6.2204	-4.2199
C	1.1876	-2.7787	-0.4901
C	0.7776	-2.8547	-1.8084
C	0.0316	-1.7873	-2.4427
C	-0.4244	-1.8577	-3.8110
C	3.7606	-3.4462	-2.6356
C	-1.1618	-0.7311	-4.0334
C	4.2052	-2.8435	-3.9449
C	-1.1724	0.0744	-2.8227
C	4.6468	-3.9757	-4.8084
C	-1.7820	1.2545	-2.6595
C	4.4106	-5.2093	-3.8786
C	-1.8012	2.0150	-1.4741
C	4.8100	-4.6629	-2.5894
C	-2.3831	3.3021	-1.3171
C	-2.2074	3.6851	-0.0573
C	-1.4623	2.6346	0.6173
C	-1.5199	3.8203	2.8005
C	-4.0700	3.0401	3.2300
C	-5.0243	3.7668	2.2781
C	-5.4295	5.0483	3.0518
C	2.6652	0.6405	-1.6136
C	0.1391	6.9269	3.8188
C	3.8682	0.0800	-1.0887
C	1.1962	-3.9869	-2.6009
C	0.6614	-6.0289	-3.8745
C	0.2745	-4.9502	-3.0919
H	2.7919	-3.7222	2.0394
C	-0.5675	-6.8710	-4.0772
C	-0.8728	-7.4766	-2.7041
C	-1.2837	-6.3922	-1.8432
C	-1.1868	-5.1586	-2.8109
C	-1.6620	-5.7416	-4.1407
C	-2.5338	1.8600	-3.8395
C	-1.8934	2.3980	-4.9372
C	-2.6221	2.9951	-5.9804
C	-3.9951	3.1415	-5.9466
C	-4.6239	2.5895	-4.8615
C	-3.9144	1.9755	-3.8169
C	-0.4360	2.5951	-5.2659
C	-0.1710	4.0851	-5.0853
C	-0.9247	4.7385	-6.2362
H	2.5096	5.0117	3.9529
C	-1.5938	3.5584	-6.9819
C	-0.4792	2.4600	-6.8055
C	-6.1044	2.4825	-4.5233
C	-6.4817	1.0067	-4.6964
C	-5.7184	0.3054	-3.5548
H	5.0107	-3.1307	6.3217
C	-4.9840	1.4601	-2.8292
C	-6.0113	2.6374	-2.9461
C	-1.9155	-1.0325	0.6185
H	1.8683	-2.7477	7.8914
H	2.8783	-4.8713	6.9626
N	0.1651	0.5250	1.9734
H	6.7600	-1.1902	5.2213
N	0.9408	-1.7141	0.4034
H	6.5469	-2.7646	3.1894
N	-0.4465	-0.6522	-1.8618
H	7.5127	-1.5310	2.9749
N	-1.2156	1.6404	-0.2933
H	6.0601	-0.6353	1.4829
H	5.1182	-1.8915	1.6606
H	4.0967	0.3194	2.5318
H	6.3664	0.7504	3.6344
H	5.2325	0.7447	4.7551
O	1.7502	1.0996	-0.5469
H	-0.1825	2.3050	4.5971
H	1.2557	0.3955	4.9712
H	-2.6173	6.8649	4.7206
H	-4.9965	5.3975	5.1497
H	-4.1506	3.0289	5.3238
H	-5.5984	2.9810	4.6626
H	0.6662	6.1523	5.6411
H	2.2475	-4.5446	-0.2128
H	1.2932	4.2456	4.6022
H	0.1535	-3.3504	4.3225
H	-0.5320	-3.0237	6.5970
H	0.4627	-1.8154	6.3789
H	0.9312	-4.0151	8.0165
H	0.6537	-5.3839	5.8342
H	1.7867	-5.2825	4.7152
H	1.8510	6.9325	4.9444
H	2.2427	-6.9217	-4.7747
H	3.7338	-2.8491	-1.8580
*