! UKS B3LYP ma-def2-SVP OPT NumFreq
%basis

end 

%scf
  maxiter 200
end

%pal 
	nprocs 16
end
* xyz 0 1
H	1.7999	-1.3650	-9.7210
C	0.7686	2.7586	-1.8008
C	-0.1121	3.5224	-1.1324
C	-0.6378	2.7640	-0.0319
C	-2.1256	2.5379	1.8813
C	-3.1477	3.0663	2.7956
C	-1.5618	3.2629	0.8673
C	-3.5398	2.0230	3.5958
C	1.5281	3.2669	-3.0265
C	0.7118	3.1906	-4.3486
C	-3.5852	4.4907	2.8639
C	-0.5279	4.9669	-1.4513
C	-2.5812	5.4016	3.6283
C	0.2137	6.0303	-0.6570
C	-4.5717	2.0551	4.7121
C	-4.0444	2.6302	6.0061
H	0.1781	-0.2830	-8.5475
H	3.7548	-2.0779	-8.6235
C	1.9343	-1.0855	-8.8241
H	-3.3838	-0.4261	4.5756
Ni	-0.4911	0.0544	1.2884
H	1.0067	-3.9505	2.0552
H	-4.8909	1.1322	4.8807
H	-2.5253	-3.7311	5.9705
H	-3.4632	-2.4859	5.6126
H	-2.5121	-2.0940	7.7305
H	-1.0372	-2.3133	7.1505
H	-1.8842	-1.0266	6.7187
H	0.6784	-4.7704	4.1555
H	-0.3950	-4.7677	5.3420
H	-1.9665	-5.7963	3.9124
H	-0.6500	-6.6965	4.0495
H	-0.8822	-5.8097	2.7371
H	2.8816	-4.5925	0.9442
H	0.8531	-5.2947	-0.1405
H	3.5684	-4.4160	-0.4915
H	2.0664	-6.2778	-0.4912
H	1.5915	-5.1810	-1.5562
H	4.3610	-2.7293	-1.6170
H	3.9880	-1.3316	-2.2947
H	2.2799	-2.5501	-3.5782
H	2.9704	-3.8957	-3.0570
H	3.7911	-2.8845	-3.9863
H	3.2599	0.6935	-2.5588
H	3.6488	0.3898	-4.7034
H	0.6819	0.6319	-6.4255
C	1.8868	0.1250	-3.8459
C	1.6293	0.3537	-1.4225
H	4.2229	-1.3450	-6.4401
C	0.8052	1.4572	-1.1022
C	-2.7111	0.8780	3.2135
C	-2.7258	-0.3057	3.9029
C	-1.8187	-1.3463	3.6644
C	-1.7419	-2.5474	4.4745
C	-0.7853	-3.3219	3.9057
C	-0.2692	-2.6009	2.7499
C	0.6773	-3.0731	1.8985
C	1.1942	-2.3923	0.8339
C	2.1986	-2.9380	-0.0707
C	1.6804	-0.8327	-0.6888
C	2.5412	-1.9870	-0.9689
C	2.4824	-0.2910	-6.2124
H	-1.8222	4.1724	0.7755
C	-2.5241	-2.7654	5.7531
C	-1.9379	-1.9776	6.9467
H	2.3568	2.7359	-3.1322
C	-0.2881	-4.6982	4.3603
H	1.7924	4.2085	-2.8685
C	-1.0098	-5.8512	3.7068
H	0.4414	2.2624	-4.5141
H	1.2662	3.5050	-5.0956
C	1.7146	-5.3696	-0.6033
H	-0.0859	3.7551	-4.2752
C	2.7100	-4.3558	-0.0026
H	-0.3787	5.1314	-2.4159
H	-1.4981	5.0619	-1.2808
C	3.6221	-2.2104	-2.0207
H	-0.0519	5.9781	0.2842
H	-4.4666	4.5349	3.3127
C	3.1204	-2.9527	-3.2753
H	-3.6979	4.8372	1.9427
H	-0.0089	6.9170	-1.0106
H	-2.4961	5.0900	4.5508
H	1.1792	5.8818	-0.7350
H	-2.9096	6.3258	3.6218
C	1.3051	0.0595	-6.8586
C	1.0301	-0.4328	-8.1591
H	-5.3477	2.5928	4.4166
H	-1.7062	5.3642	3.1866
N	-0.0727	1.4746	-0.0172
H	-3.3570	2.0350	6.3702
N	-1.8341	1.1924	2.1791
H	-4.7779	2.7172	6.6474
N	-0.9071	-1.3637	2.6174
H	-3.6533	3.5130	5.8329
N	0.8679	-1.0868	0.4425
C	3.4147	-1.0908	-6.8695
N	2.4196	0.4380	-2.6135
C	3.1433	-1.5108	-8.1691
O	0.6947	-0.1465	-3.9919
N	2.8263	0.1263	-4.8736
*