! UKS B3LYP ma-def2-SVP OPT NumFreq
%basis
NewGTO Br "ma-def2-TZVP" end
end 

%scf
  maxiter 200
end

%pal 
	nprocs 16
end
* xyz 0 1
C	-0.2563	0.9849	5.6723
H	3.1079	0.4115	-9.1435
H	2.9666	-1.1825	-9.1786
C	-0.5893	1.0511	7.0272
H	1.6914	-0.2600	-9.4682
C	-1.1093	-0.0370	7.7043
C	2.6618	-1.5941	1.8592
C	-1.2933	-1.2144	6.9972
H	-0.8778	0.8014	-4.7090
C	3.4440	-1.9241	0.7596
H	-2.7422	1.6882	-3.3275
C	3.1589	-1.6795	-0.5803
Br	-4.0278	2.2410	-0.8997
C	4.0215	-2.0031	-1.6788
C	3.4129	-1.5661	-2.7969
H	-3.8185	1.8194	1.8981
C	2.1583	-0.9698	-2.4062
C	-1.0114	-1.3202	5.6376
N	-0.4239	0.3297	-1.5603
C	1.2244	-0.3925	-3.2668
C	0.0198	0.1961	-2.8613
N	-1.0313	0.3572	1.2493
C	-1.4402	0.0470	9.1743
H	1.7695	-3.2404	-4.3532
H	0.2710	-2.6874	-4.2613
H	-2.6773	1.0014	3.9303
H	0.7525	-3.4799	-5.5650
H	-0.4549	1.8666	7.4965
H	-1.6246	-1.9764	7.4566
H	-2.0934	-2.5154	4.3639
H	-0.5294	-2.8517	4.3552
H	-1.4444	-3.3283	5.5795
H	-0.1518	2.4425	4.2347
H	-1.6901	0.9670	9.4021
C	-0.1961	-0.2639	3.4958
H	-2.1875	-0.5544	9.3762
C	1.0102	-0.8500	3.0983
C	-1.2944	-2.6173	4.9209
C	1.5413	-0.3773	-4.7357
C	2.0067	-1.3915	3.9888
C	1.4662	-1.5572	-5.4874
C	3.0205	-1.8490	3.2284
C	1.7991	-1.5126	-6.8402
H	-0.6569	-0.2180	9.7002
Zn	0.5245	-0.3115	0.1189
C	2.1772	-0.3454	-7.4666
C	2.2227	0.8103	-6.7178
H	4.2650	-2.3663	0.9421
C	1.9181	0.8218	-5.3560
H	4.8625	-2.4427	-1.6268
H	3.7481	-1.6374	-3.6833
C	2.0040	2.1151	-4.5795
C	1.0267	-2.8543	-4.8622
C	-0.9429	0.7682	-3.7610
C	2.5157	-0.3441	-8.9449
C	-1.9607	1.2524	-3.0091
C	0.3861	2.1699	5.0081
C	-1.6329	0.9798	-1.6395
N	1.4356	-0.9834	1.7959
N	2.0222	-1.0575	-1.0318
C	-2.4213	1.2932	-0.5273
C	-2.1657	1.0116	0.8108
C	-2.9867	1.3607	1.9306
H	1.9568	-1.4208	4.9372
H	3.8187	-2.2618	3.5376
H	1.7648	-2.3153	-7.3479
C	-2.3631	0.9186	3.0382
H	2.4698	1.6245	-7.1406
C	-1.1395	0.2981	2.6275
H	1.1003	2.4502	-4.4022
H	2.4652	1.9558	-3.7299
H	2.5023	2.7776	-5.1019
H	0.4417	2.9127	5.6460
H	1.2876	1.9278	4.7097
C	-0.4921	-0.2014	4.9681
*