! UKS B3LYP ma-def2-SVP OPT NumFreq
%basis

end 

%scf
  maxiter 200
end

%pal 
	nprocs 16
end
* xyz 0 1
H	-4.5595	1.9200	-1.5036
H	-0.8686	0.3470	-5.0649
H	-3.2470	-0.7269	-4.3592
H	-4.6616	-0.3072	-6.1320
H	-4.6565	3.6210	-5.2120
H	-3.1989	3.2139	-3.4624
H	-6.0319	2.9309	-6.9802
H	-6.6207	1.4529	-6.8320
H	-4.4918	2.2040	-8.5578
H	-4.9449	0.6872	-8.3455
H	-6.5327	2.7225	-9.5380
H	-7.0880	1.2590	-9.2275
H	-5.5057	0.3799	-10.7455
H	-5.0588	1.8696	-11.1006
H	-7.1312	2.3048	-12.0259
H	-7.6505	0.8587	-11.5995
H	-6.1690	-0.1056	-13.1297
H	-5.6959	1.3521	-13.5714
H	-8.3139	0.3664	-13.9471
N	0.1004	-0.0077	-2.0310
H	-7.7983	1.7950	-14.4350
H	-7.9197	0.3450	-16.2335
H	-6.3911	0.7531	-15.9898
Zn	0.0000	0.0000	0.0000
H	-6.9239	-0.6765	-15.5071
H	4.5595	-1.9200	1.5036
H	0.8686	-0.3470	5.0649
H	3.2470	0.7269	4.3592
H	4.6616	0.3072	6.1320
H	4.6565	-3.6210	5.2120
H	3.1989	-3.2139	3.4624
H	6.0319	-2.9309	6.9802
H	6.6207	-1.4529	6.8320
H	4.4918	-2.2040	8.5578
H	4.9449	-0.6872	8.3455
H	6.5327	-2.7225	9.5380
H	7.0880	-1.2590	9.2275
H	5.5057	-0.3799	10.7455
H	5.0588	-1.8696	11.1006
H	7.1312	-2.3048	12.0259
H	7.6505	-0.8587	11.5995
H	6.1690	0.1056	13.1297
H	5.6959	-1.3521	13.5714
H	8.3139	-0.3664	13.9471
H	7.7983	-1.7950	14.4350
H	7.9197	-0.3450	16.2335
H	6.3911	-0.7531	15.9898
H	6.9239	0.6765	15.5071
C	-3.8794	1.6293	-0.9078
C	-2.5847	1.1010	-1.2763
C	-2.1348	0.9002	-2.5863
C	-0.8718	0.3718	-2.9152
C	-0.3902	0.1725	-4.2639
C	-3.0595	1.2028	-3.7138
C	-3.5244	0.1648	-4.5324
C	-4.3751	0.4148	-5.5842
C	-4.8259	1.6990	-5.8658
C	-4.3662	2.7322	-5.0459
C	-3.4992	2.4890	-3.9975
C	-5.7919	1.9704	-6.9930
C	-5.2681	1.6225	-8.3601
C	-6.2764	1.7688	-9.4748
C	-5.8289	1.3123	-10.8240
C	-6.8552	1.3608	-11.9098
C	-6.4708	0.8306	-13.2434
C	-7.5247	0.8539	-14.2919
C	-7.1580	0.2685	-15.6201
C	3.8794	-1.6293	0.9078
C	2.5847	-1.1010	1.2763
C	2.1348	-0.9002	2.5863
C	0.8718	-0.3718	2.9152
C	0.3902	-0.1725	4.2639
C	3.0595	-1.2028	3.7138
C	3.5244	-0.1648	4.5324
C	4.3751	-0.4148	5.5842
C	4.8259	-1.6990	5.8658
C	4.3662	-2.7322	5.0459
C	3.4992	-2.4890	3.9975
C	5.7919	-1.9704	6.9930
C	5.2681	-1.6225	8.3601
C	6.2764	-1.7688	9.4748
C	5.8289	-1.3123	10.8240
C	6.8552	-1.3608	11.9098
C	6.4708	-0.8306	13.2434
C	7.5247	-0.8539	14.2919
N	-1.8778	0.7907	-0.1421
C	7.1580	-0.2685	15.6201
H	-3.0167	1.2086	2.8885
H	-4.6715	1.9287	0.9727
H	-1.4487	0.5282	4.8912
N	1.8778	-0.7907	0.1421
C	-2.3595	0.9399	2.2562
C	-2.6883	1.0997	0.9166
C	-3.9427	1.6331	0.4400
C	-0.8724	0.3092	4.1682
C	-1.1716	0.4280	2.7770
H	3.0167	-1.2086	-2.8885
H	4.6715	-1.9287	-0.9727
H	1.4487	-0.5282	-4.8912
N	-0.1004	0.0077	2.0310
C	2.3595	-0.9399	-2.2562
C	2.6883	-1.0997	-0.9166
C	3.9427	-1.6331	-0.4400
C	0.8724	-0.3092	-4.1682
C	1.1716	-0.4280	-2.7770
*