! UKS B3LYP ma-def2-SVP OPT NumFreq
%basis

end 

%scf
  maxiter 200
end

%pal 
	nprocs 16
end
* xyz 0 1
Zn	-0.3112	0.3454	0.7157
C	4.2816	-0.9844	2.0637
H	1.7178	3.0331	-3.4157
C	-1.9868	-1.2178	5.1006
H	4.7417	0.2735	-0.3802
C	-6.3552	3.6984	-1.2583
C	2.9080	1.7713	-5.2881
H	4.8100	-2.0088	0.4028
H	-1.2305	2.4483	-3.8320
C	1.9557	1.2811	-4.3705
H	-3.4563	2.3510	-2.7802
C	3.4398	0.8830	-6.2113
C	-3.2713	1.0309	1.2417
H	0.5512	-2.1632	5.0926
C	2.0912	-0.8923	-5.3728
H	3.7288	1.4290	-2.2799
C	-4.2715	0.9997	2.2938
H	-4.3544	3.8708	-1.0127
C	-0.1120	-0.9105	3.5178
H	-5.8432	0.2709	0.0277
H	-4.1299	0.2476	4.1801
C	-3.0516	-2.1294	5.0811
C	-2.4442	1.7039	-1.0097
H	-6.4802	4.5556	-1.5956
C	1.9887	-1.6704	3.7151
H	3.1724	2.6635	-5.2736
H	-5.1379	1.3330	2.2376
C	1.5513	-0.0429	-4.4104
H	-3.4490	-2.3603	4.2712
C	-7.4562	2.8606	-1.1089
C	8.2156	-2.2526	3.4175
C	4.7834	-0.6200	3.3228
H	2.7623	-2.0931	4.0128
C	-7.2255	1.5781	-0.6050
H	0.9246	-0.3619	-3.8008
C	0.9170	1.6793	-2.1737
H	4.2633	-0.0896	3.8818
H	8.6393	-2.7727	2.7316
C	-1.4643	-0.6433	3.8250
H	-7.9470	1.0049	-0.4826
H	8.1170	-2.7882	4.2075
C	6.3822	-2.1515	1.6733
H	6.9187	-2.6547	1.1038
H	8.7564	-1.4849	3.6170
C	2.1131	-3.0839	-6.3167
H	1.6934	-3.9398	-6.2086
H	3.0625	-3.1747	-6.1914
C	0.2070	-2.5392	-0.5449
H	1.9374	-2.7506	-7.1987
C	-1.4067	-0.8884	6.3356
C	3.0530	-0.4540	-6.2597
C	6.0381	-1.0349	3.7548
H	0.3486	-3.0437	0.2723
C	4.7685	2.5857	-7.2347
H	1.0515	-2.1411	-0.8113
C	-8.8305	3.3093	-1.5131
C	-1.6283	-2.9672	-1.9861
H	-0.6960	-0.2880	6.3746
C	-1.9019	-1.4655	7.5045
H	3.4335	-1.0375	-6.8754
C	-3.5200	-2.6936	6.2672
H	6.3305	-0.7911	4.6045
H	5.4372	2.6882	-7.9155
C	-1.7838	-1.6107	-1.3807
C	-2.9599	-2.3473	7.4757
H	5.1248	2.8749	-6.3920
C	-0.3079	-3.4107	-1.6016
H	3.9997	3.1174	-7.4576
N	-2.1154	0.4538	1.7169
H	-9.4602	2.6065	-1.3407
N	-1.1172	1.4627	-0.8044
H	-8.8354	3.5194	-2.4502
N	0.5658	-0.4216	2.4307
H	-9.0745	4.0900	-1.0093
N	1.5757	0.5381	-0.0967
H	-2.3068	-3.5728	-1.6448
H	-1.7088	-2.9218	-2.9513
N	1.4039	2.1720	-3.4359
H	-1.5087	-1.2515	8.3213
O	1.5945	-2.1748	-5.3543
O	-0.7770	-1.5292	-0.3418
H	-4.2178	-3.3082	6.2411
H	-1.6429	-0.9208	-2.0487
O	4.3905	1.2254	-7.1460
H	-2.6729	-1.5031	-1.0063
H	-3.2928	-2.7065	8.2670
H	0.2851	-3.3809	-2.3690
H	-0.3470	-4.3262	-1.2827
C	1.8627	-0.8560	2.5384
C	-0.4663	1.7739	-1.9661
C	-4.8367	1.9879	-0.4208
C	3.8379	0.4564	-0.4933
C	6.8655	-1.8065	2.9434
C	-2.3622	0.0440	2.9997
C	5.1092	-1.7547	1.2451
C	-1.4194	2.1928	-2.9584
C	1.8491	1.1294	-1.3016
C	-2.6438	2.1435	-2.3780
C	0.7696	-1.7067	4.3136
C	2.7704	0.1088	0.4317
C	-3.4534	1.5470	-0.0467
C	3.2805	1.0853	-1.5398
C	2.9229	-0.5564	1.6486
C	-5.0683	3.2821	-0.9140
C	-5.9611	1.1385	-0.2837
C	-3.7177	0.4019	3.3597
*