! UKS B3LYP ma-def2-SVP OPT NumFreq
%basis
NewGTO Ru "ma-def2-TZVP" end
end 

%scf
  maxiter 200
end

%pal 
	nprocs 16
end
* xyz 0 1
C	2.0272	2.7248	0.3489
F	-1.4388	-5.0652	-1.8218
C	2.9627	3.9131	0.4791
C	-4.3761	3.1952	2.7605
C	-2.8653	1.3015	3.3672
C	4.2039	3.9268	-0.1185
C	2.2424	-0.3932	2.0448
C	-3.5380	2.5954	3.8836
H	-5.9027	-4.9669	0.4712
C	5.0805	4.9906	-0.0414
C	1.8324	-1.6797	2.3799
H	-5.2639	-6.8258	-0.7673
H	-1.1053	-4.8562	1.2767
C	4.6932	6.0929	0.7001
H	-3.2096	-6.8469	-1.8439
C	2.6161	-2.4237	3.4221
C	-2.4644	3.5771	4.3044
C	3.4678	6.1129	1.3358
H	-4.1133	-2.1438	-2.1812
C	2.3330	-2.3727	4.7645
C	2.6410	5.0316	1.2005
C	3.0057	-3.0782	5.7254
C	2.3488	1.6150	1.1066
N	-1.3160	0.3758	1.6684
H	-0.8086	4.3050	-2.7025
C	4.0272	-3.8869	5.3314
C	3.4655	1.4968	2.0190
C	1.9774	-1.6262	-2.1758
C	4.3987	-3.9815	3.9961
F	-1.3042	1.5764	-5.1584
C	3.3930	0.2775	2.5962
C	3.6897	-3.2362	3.0977
C	0.8947	-2.5992	-2.6120
F	-4.0261	3.3022	-1.7842
C	1.5674	-3.9069	-3.1153
C	2.4304	-4.4991	-1.9724
H	-3.9797	0.0672	-3.2290
C	2.8653	-1.3015	-3.3672
H	-2.7724	3.0060	-6.6230
C	3.4972	-3.4975	-1.5725
C	3.5380	-2.5954	-3.8836
C	2.8290	-2.2110	-1.0672
H	-4.4848	4.3859	-5.9686
H	-5.0986	4.5302	-3.7267
C	2.4644	-3.5771	-4.3044
C	4.3761	-3.1952	-2.7605
H	-0.3080	2.7945	1.8670
N	1.3160	-0.3758	-1.6684
H	-0.3669	2.2048	3.3233
H	-1.8687	4.7019	1.2077
H	-0.8811	4.5526	3.3840
H	-4.0454	3.8782	0.8549
H	-2.8472	5.3228	2.2679
H	-3.5063	1.5702	0.8007
H	-2.2741	2.4088	0.2947
C	0.9626	2.8741	-0.5220
N	0.0532	1.8800	-0.8004
H	0.8086	-4.3050	2.7025
F	1.3042	-1.5764	5.1584
F	4.0261	-3.3022	1.7842
H	-0.8381	-0.0373	2.3514
H	-2.3330	0.9058	4.0748
H	-1.8800	-0.1120	1.5789
H	-5.0714	2.5706	2.5026
N	1.6172	0.4380	1.1421
H	-3.5448	0.6619	3.1043
H	-4.7996	4.0114	3.0688
H	-4.1133	2.3864	4.6496
H	3.9797	-0.0672	3.2290
H	1.1053	4.8562	-1.2767
F	4.5695	2.8430	-0.8496
C	-0.9626	-2.8741	0.5220
C	-2.0272	-2.7248	-0.3489
H	2.7724	-3.0060	6.6230
F	1.4388	5.0652	1.8218
C	-0.6569	-4.0425	1.3035
C	-2.9627	-3.9131	-0.4791
H	0.3080	-2.7945	-1.8670
H	4.4848	-4.3859	5.9686
H	-1.9321	3.1939	5.0195
C	-4.2039	-3.9268	0.1185
H	0.3669	-2.2048	-3.3233
H	5.0986	-4.5302	3.7267
H	-2.8766	4.3896	4.6375
H	5.9027	4.9669	-0.4712
C	-5.0805	-4.9906	0.0414
C	-0.7792	2.3901	-1.7816
H	0.8811	-4.5526	-3.3840
H	5.2639	6.8258	0.7673
C	-4.6932	-6.0929	-0.7001
C	-0.4009	3.7426	-2.0841
H	2.8472	-5.3228	-2.2679
H	3.2096	6.8469	1.8439
C	-3.4678	-6.1129	-1.3358
H	4.1133	2.1438	2.1812
C	-2.6410	-5.0316	-1.2005
C	-2.3488	-1.6150	-1.1066
H	1.8687	-4.7019	-1.2077
C	-3.4655	-1.4968	-2.0190
H	4.0454	-3.8782	-0.8549
C	-3.3930	-0.2775	-2.5962
H	2.3330	-0.9058	-4.0748
H	3.5063	-1.5702	-0.8007
H	3.5448	-0.6619	-3.1043
H	2.2741	-2.4088	-0.2947
H	4.1133	-2.3864	-4.6496
H	1.9321	-3.1939	-5.0195
H	5.0714	-2.5706	-2.5026
H	2.8766	-4.3896	-4.6375
H	4.7996	-4.0114	-3.0688
C	-2.2424	0.3932	-2.0448
C	-1.8324	1.6797	-2.3799
C	-2.6161	2.4237	-3.4221
C	-2.3330	2.3727	-4.7645
C	0.7792	-2.3901	1.7816
C	-3.0057	3.0782	-5.7254
C	0.4009	-3.7426	2.0841
C	-4.0272	3.8869	-5.3314
H	0.8381	0.0373	-2.3514
C	-4.3987	3.9815	-3.9961
H	1.8800	0.1120	-1.5789
C	-3.6897	3.2362	-3.0977
Ru	-0.0000	-0.0000	-0.0000
C	-1.9774	1.6262	2.1758
C	0.6569	4.0425	-1.3035
C	-0.8947	2.5992	2.6120
N	-1.6172	-0.4380	-1.1421
C	-3.4972	3.4975	1.5725
C	-1.5674	3.9069	3.1153
C	-2.8290	2.2110	1.0672
N	-0.0532	-1.8800	0.8004
C	-2.4304	4.4991	1.9724
F	-4.5695	-2.8430	0.8496
*