! UKS B3LYP ma-def2-SVP OPT NumFreq
%basis

end 

%scf
  maxiter 200
end

%pal 
	nprocs 16
end
* xyz 0 1
Zn	0.4969	0.0428	0.9485
C	3.2686	1.2404	0.2779
C	3.1295	0.9717	-1.0942
H	-1.1609	-0.8212	5.7740
H	0.8685	0.5305	6.0699
H	2.5528	0.2765	-3.7677
H	0.4298	-0.9280	-4.1141
H	-3.3209	-2.9129	-0.8800
H	-3.6203	-3.0058	1.5720
H	-3.2630	-4.9876	5.6318
H	-5.4267	-4.1934	5.6341
H	-5.9639	-2.1667	4.6570
H	-5.6522	0.8169	2.9207
H	-5.9787	0.0536	4.2693
H	-6.1857	-0.6741	2.8794
H	0.0860	-5.3143	4.8290
H	-1.3864	-5.8160	4.5285
H	-1.0488	-5.1394	5.9208
C	2.9052	4.6271	-3.1393
H	-1.6144	-3.8868	-2.6140
H	-2.9895	-4.6145	-4.3228
H	-4.0738	-3.1003	-5.6899
H	-3.7386	-0.8274	-5.3894
H	4.6549	2.4008	2.8679
H	5.1256	2.2785	0.4481
C	-2.3142	1.6454	-3.4595
C	-3.1053	3.9661	-1.7314
C	-0.4229	3.9383	-3.2173
C	-3.0424	4.2231	-4.7396
C	0.0848	3.1533	0.7806
C	5.3489	0.6204	-2.2055
C	6.4551	-1.4374	-1.7417
H	4.9950	3.7432	-4.2058
O	3.0074	3.3648	-2.4913
H	6.8088	2.3482	-4.5132
O	-0.5654	1.9091	0.7240
C	-0.7430	-0.7696	3.6746
C	-0.5904	-0.5190	5.0921
C	0.5185	0.2236	5.2536
C	1.0713	0.4644	3.9407
C	2.0594	0.2971	-1.6892
C	1.9351	0.0342	-3.1026
C	0.7724	-0.6229	-3.2946
O	5.4194	-0.4993	-1.4383
C	0.1538	-0.7687	-1.9917
C	-1.0685	-1.4233	-1.7491
C	-1.6088	-1.6820	-0.4885
C	-2.7796	-2.4958	-0.2345
C	-2.9458	-2.5412	1.1102
C	-1.8994	-1.7474	1.7009
C	-1.7484	-1.5283	3.0762
C	-2.7726	-2.2256	3.9393
C	-2.4793	-3.4429	4.5462
C	-3.4700	-4.1770	5.2052
Si	-2.2068	3.4631	-3.2716
C	-4.7515	-3.6902	5.2166
C	-5.0805	-2.4845	4.6354
H	2.6625	1.5554	4.4184
C	-4.0738	-1.7482	4.0161
C	-5.6349	-0.0440	3.3684
C	-0.8566	-5.1332	4.9689
C	4.1104	2.0026	2.2144
C	4.3688	1.9354	0.8880
C	-1.8570	-1.8993	-2.9333
C	-2.0481	-3.2580	-3.1620
C	-2.8675	-3.6933	-4.1857
C	-3.5070	-2.7937	-5.0059
C	-3.3135	-1.4421	-4.8185
C	-2.4849	-0.9762	-3.7792
C	-2.3634	0.4373	-3.5870
H	2.0821	5.0623	-2.8709
H	2.9052	4.4987	-4.1003
N	0.2812	-0.1432	2.9945
H	3.6606	5.1815	-2.8870
N	2.3497	0.8982	1.2403
N	0.9589	-0.2014	-1.0366
N	-1.0941	-1.2357	0.7098
O	-4.2962	-0.5236	3.4209
O	-1.1806	-3.8616	4.4306
H	-3.0535	4.9292	-1.6277
H	-2.6962	3.5357	-0.9649
C	4.2278	1.4241	-2.0156
H	-4.0343	3.6967	-1.7975
C	4.1152	2.6030	-2.7535
H	7.0848	0.4283	-3.2723
H	-0.3477	4.9013	-3.1163
C	5.0812	2.9554	-3.6994
H	6.4009	-2.1883	-1.1300
H	0.0096	3.6642	-4.0407
C	6.1606	2.1206	-3.8712
H	7.3189	-1.0070	-1.6484
H	0.0047	3.5016	-2.4649
C	6.3282	0.9705	-3.1441
H	6.3479	-1.7533	-2.6530
H	-3.0043	5.1893	-4.6692
H	-3.9690	3.9367	-4.7678
H	-2.5915	3.9398	-5.5499
H	-1.2940	1.8155	1.0031
H	-0.5646	3.8624	0.6568
H	0.7539	3.1997	0.0811
H	0.5124	3.2539	1.6454
C	2.2362	1.1634	3.6776
C	2.8489	1.3517	2.4371
*