! UKS B3LYP ma-def2-SVP OPT NumFreq
%basis

end 

%scf
  maxiter 200
end

%pal 
	nprocs 16
end
* xyz 0 1
S	4.4617	-3.8668	1.2913
S	5.0225	-3.1730	-1.4858
Ni	0.2203	-0.0266	0.2280
N	-1.5681	-0.4340	0.7900
N	0.6037	-1.8888	0.0026
N	1.9963	0.4007	-0.3079
H	-4.2784	-0.0249	2.4614
H	-4.1131	-2.2571	1.4167
H	-0.0570	-4.9580	-0.6943
H	2.3815	-4.5169	-0.4892
H	5.1585	-0.0226	-0.5342
C	-2.3869	0.3632	1.5087
C	-3.5717	-0.3494	1.9152
C	-3.4678	-1.5615	1.3627
C	-2.2113	-1.6257	0.6770
C	-1.6770	-2.7924	0.1660
H	5.0201	-1.8051	0.4051
H	6.7812	-3.5757	1.1787
C	-0.3338	-2.9083	-0.1751
H	6.4180	-5.1318	1.0717
C	0.3489	-4.1283	-0.4721
C	1.6797	-3.8855	-0.3761
H	6.2688	-5.0742	-1.0943
H	7.1847	-3.7704	-0.9477
C	1.8256	-2.4808	-0.0700
C	3.0327	-1.8027	-0.0348
H	-3.8634	-3.1582	-1.3544
C	3.0847	-0.4402	-0.2869
H	-4.8681	-6.9236	-0.1850
C	4.2645	0.2974	-0.5863
H	-1.6341	-5.0984	1.4358
C	3.8762	1.5471	-0.9617
Si	-5.3243	3.9009	4.1051
C	2.4836	1.6442	-0.7195
H	-5.4896	-3.1671	-2.5767
H	-6.9836	-3.6991	-2.7910
H	-6.5077	-3.2119	-1.3429
H	-6.7744	-6.5753	-1.0078
H	-7.2400	-5.1493	-0.4503
H	-7.7159	-5.6366	-1.8985
H	-5.3321	-6.7613	-2.7943
H	-6.4827	-5.9275	-3.5305
C	4.3660	-2.4965	0.0973
H	-4.9562	-5.4616	-3.6491
C	6.1643	-4.2269	0.7622
H	-2.4570	-6.2760	3.3076
C	6.3003	-4.1565	-0.7213
H	-3.9848	-6.7519	3.3264
N	-0.1706	1.8556	0.3837
C	-2.5823	-3.9858	-0.0034
C	-3.6880	-3.9419	-0.8464
H	-3.8594	-8.8525	0.4505
C	-4.5636	-5.0648	-0.9497
H	-3.6721	-9.3508	1.9598
C	-4.2940	-6.1688	-0.1388
H	-4.8373	-8.3152	1.5978
C	-3.2131	-6.2033	0.7359
H	-2.8196	-7.7874	3.6883
C	-2.3597	-5.0961	0.8215
H	-1.4820	-8.2374	0.4462
C	-5.7881	-5.0256	-1.8524
H	-0.8827	-7.2986	1.5954
C	-6.2284	-3.6632	-2.1664
H	-1.4038	-8.7687	1.9537
C	-6.9803	-5.6489	-1.2525
C	-5.6273	-5.8666	-3.0573
C	-2.9608	-7.4170	1.6612
C	-3.0647	-7.0223	3.1274
C	-3.9205	-8.5900	1.3947
C	-1.5533	-7.9823	1.3880
H	0.0562	5.0217	-0.2443
H	-1.8644	4.4899	1.1763
H	4.4343	2.2279	-1.3201
H	-6.3765	1.8555	4.7342
C	0.5220	2.9456	-0.1957
H	-5.2774	2.2525	5.8276
C	-0.1879	4.1577	0.0655
C	-1.2392	3.8711	0.8167
H	-6.7011	2.9836	5.8220
C	-1.2565	2.4491	0.9795
H	-7.0146	3.7149	2.4610
C	-2.2311	1.7522	1.6775
H	-7.3736	4.8994	3.4755
H	-6.2828	5.1318	2.3278
H	-5.3249	5.7043	5.5857
H	-3.9196	4.9415	5.6510
H	-4.2341	5.9368	4.4380
C	1.7613	2.8172	-0.7527
C	-3.1809	2.4585	2.4662
C	-4.0071	3.1053	3.1108
C	-6.0008	2.5916	5.2600
C	-6.6563	4.4803	2.9571
C	-4.6205	5.2790	5.0535
H	2.5154	3.2652	-3.2398
H	3.9436	7.0351	-2.9180
H	2.4878	5.1325	0.3565
H	4.4211	3.2315	-4.9102
H	2.8938	3.3947	-5.3595
H	4.0702	3.8670	-6.3364
H	5.1416	6.6643	-4.5272
C	2.4415	4.0120	-1.3533
H	5.7956	5.2051	-4.4620
C	2.7458	4.0152	-2.7037
H	5.3777	5.8324	-5.8738
C	3.3864	5.1145	-3.2872
H	2.7861	6.9516	-5.0806
C	3.5942	6.2515	-2.5110
H	3.0570	6.1630	-6.4465
C	3.2999	6.2640	-1.1470
H	1.8806	5.6907	-5.4697
C	2.7062	5.1349	-0.5662
H	5.5190	7.0229	0.0241
C	3.7525	5.1521	-4.7880
H	4.9684	8.0591	1.1123
C	3.7871	3.7959	-5.4010
H	4.5712	6.5118	1.2080
C	5.1402	5.7692	-4.9260
H	4.7064	8.4946	-1.6746
C	2.7829	6.0714	-5.5092
H	3.1626	8.9068	-1.7626
C	3.5348	7.5137	-0.2696
H	4.0809	9.4902	-0.5889
C	4.7568	7.2538	0.5942
H	1.5456	8.0352	-0.0975
C	3.9034	8.7086	-1.1536
H	2.0643	7.1504	1.1310
C	2.2906	7.8818	0.5197
H	2.4615	8.6978	1.0354
*