! UKS B3LYP ma-def2-SVP OPT NumFreq
%basis

end 

%scf
  maxiter 200
end

%pal 
	nprocs 16
end
* xyz 0 1
C	-4.6253	0.9272	-0.7570
C	-4.6080	1.7082	0.3454
C	-3.2499	1.9881	0.6574
C	-2.8071	2.6793	1.7775
H	1.9778	-3.6170	-3.1904
C	-3.8170	3.1261	2.7926
Cl	-6.9333	-3.1923	-5.3429
H	0.2730	-4.4410	-4.6060
C	-4.5213	2.2115	3.5221
H	-1.6790	-5.0679	-3.8135
C	-5.4194	2.6037	4.5059
O	-2.5692	-5.0894	0.8152
O	3.7376	-3.0886	-1.5547
C	-5.5927	3.9221	4.7510
H	-2.2273	-4.9228	-1.5498
C	-1.4675	2.9525	2.0533
C	-4.9120	4.8857	4.0255
H	-2.5661	-4.4033	5.5327
C	-0.9953	3.5925	3.2471
C	-4.0439	4.4791	3.0410
H	-2.9930	-5.0159	3.4001
H	-0.6471	-3.3304	6.0327
C	0.3329	3.6964	3.1555
C	0.7284	3.1124	1.9194
C	2.0501	3.0369	1.4624
C	3.0767	3.7729	2.2514
C	-3.2785	0.7443	-1.1685
C	3.0239	5.1435	2.3348
C	3.9314	5.8870	3.0669
C	4.9335	5.2314	3.7228
C	5.0595	3.8630	3.6469
C	4.1205	3.1465	2.9251
C	2.4312	2.4302	0.2680
C	3.7581	2.4047	-0.2543
C	3.7171	1.7610	-1.4189
H	-4.9199	-3.8284	-3.5345
C	2.3653	1.3580	-1.6565
C	1.9163	0.6601	-2.7883
C	2.9357	0.2985	-3.8231
C	3.8322	-0.7028	-3.6173
C	4.7822	-1.0520	-4.5549
C	4.7932	-0.3857	-5.7169
C	3.9598	0.6245	-5.9927
C	2.9798	0.9648	-5.0277
C	-0.7574	4.8123	-1.1922
N	-0.1593	-0.4040	0.6482
N	2.5884	-2.2932	1.7190
Mn	-0.4230	1.5616	-0.4366
N	-0.4701	0.5579	-2.1775
N	-2.4285	1.4169	-0.3072
N	-0.3925	2.6462	1.2576
H	-0.9275	3.4743	-2.4497
N	1.5744	1.7732	-0.6029
Cl	6.0990	6.1600	4.6280
Cl	5.9700	-0.8568	-6.9322
Cl	-6.6888	4.4209	6.0074
O	-0.7199	3.4950	-1.6568
C	1.7430	-4.9031	1.6348
H	0.8481	-2.7322	4.3447
C	-0.3950	-4.1938	-0.9638
H	5.2076	-1.5285	0.0005
C	0.8402	-3.7961	-1.4750
H	5.7354	-0.4502	1.9527
C	1.1506	-3.8749	-2.8541
H	4.3348	-0.5165	3.7725
H	2.3323	-1.6736	3.5323
C	0.1186	-4.3729	-3.6925
C	-1.0441	-4.7419	-3.2178
H	0.6811	-0.9249	-4.7335
C	-1.3860	-4.6684	-1.8536
H	-1.6617	-1.3763	-4.3889
C	-1.5499	-4.4786	1.2001
C	-1.3340	-4.1544	2.5797
C	-2.2258	-4.5305	3.6011
H	-3.3365	-2.5871	-2.3635
C	-1.9642	-4.1902	4.8564
C	-0.8393	-3.5454	5.1497
H	-6.4198	-0.4717	-5.0400
C	0.0635	-3.1836	4.1240
H	-4.8364	0.7427	-3.8939
C	2.9656	-2.9292	-0.5524
H	-5.3800	0.5761	-1.1704
H	-5.3516	2.0073	0.8168
H	-4.3953	1.3051	3.3553
H	-5.8936	1.9679	4.9890
H	-1.5199	3.8844	3.9563
H	-5.0412	5.7903	4.2005
H	0.8969	4.0815	3.7867
H	-3.5996	5.1168	2.5310
H	2.3480	5.5914	1.8792
H	3.8621	6.8130	3.1111
H	5.7622	3.4295	4.0746
H	4.1898	2.2186	2.8894
H	4.5144	2.7703	0.1461
H	4.4419	1.6007	-1.9809
H	3.8038	-1.1703	-2.8151
H	5.3982	-1.7273	-4.3845
H	4.0212	1.0902	-6.7960
H	2.3653	1.6401	-5.2068
H	-1.5814	4.9609	-0.7219
H	-0.0184	4.9609	-0.5958
H	-0.6975	5.4159	-1.9338
C	0.1895	-1.4694	0.8949
C	3.4272	-2.2503	0.6510
C	4.6262	-1.5572	0.7283
C	4.9350	-0.9195	1.8964
C	4.1173	-0.9446	2.9757
C	2.9247	-1.6521	2.8177
C	0.6118	0.2557	-2.9768
C	0.1596	-0.5953	-4.0384
C	-1.1260	-0.8282	-3.8605
C	-1.5451	-0.0956	-2.7170
N	2.2551	-5.8721	1.9239
C	-2.8780	-0.0107	-2.2704
C	-3.8958	-0.7995	-3.0135
N	-0.5431	-4.0612	0.4112
C	-3.9447	-2.1500	-2.9133
N	1.6816	-3.2620	-0.4600
C	-4.8947	-2.9023	-3.6182
N	-0.1854	-3.4737	2.8617
C	-5.7739	-2.2629	-4.4300
C	-5.7849	-0.9070	-4.5171
C	-4.8396	-0.1851	-3.8199
Co	0.9154	-3.2106	1.2477
*