! UKS B3LYP ma-def2-SVP OPT NumFreq
%basis
NewGTO Rh "ma-def2-TZVP" end
end 

%scf
  maxiter 200
end

%pal 
	nprocs 16
end
* xyz 0 1
H	-3.9477	-0.6307	3.2495
C	2.4001	1.5669	-5.0133
H	-9.3756	1.6508	-1.5856
H	-4.9998	-0.3845	1.0272
H	-10.2790	1.4166	-2.8833
H	-8.9699	2.3324	-2.9767
C	-6.4859	-0.6611	-2.8533
C	-5.1791	-0.7543	-2.4620
H	5.0397	0.2362	-0.9210
O	8.6441	-0.4582	2.8566
H	3.2398	-0.8013	3.9617
H	3.3884	2.4080	-6.5437
C	1.3669	-0.5145	-5.4907
H	2.5888	2.2715	-4.4053
C	5.2378	0.7019	2.4671
H	1.0225	-0.8603	4.9935
C	1.8033	-0.4333	-6.8053
C	-1.5440	0.4206	5.5506
H	-6.8516	-1.3352	-3.4135
H	-4.6436	-1.4717	-2.7769
C	2.9049	-0.2646	-9.3683
C	4.6528	-0.3236	1.7038
C	5.4100	-1.4192	1.3969
H	4.7259	1.4683	2.6991
H	0.8573	-1.2679	-5.2160
C	-0.5816	3.0886	-0.3924
H	1.5862	-1.1222	-7.4235
C	0.2016	3.5165	-1.5770
H	-1.1572	1.2368	5.2536
H	-1.9049	1.0800	7.4657
H	3.2658	-1.0761	-8.9544
C	-1.6384	-0.6242	4.6561
H	3.3955	-0.0764	-10.1977
H	1.9566	-0.3964	-9.5720
C	-1.9851	0.3395	6.8769
H	5.0137	-2.1237	0.8988
H	-2.9688	0.7314	9.3424
O	0.0246	2.0603	0.4338
C	-2.5324	-0.8280	7.2934
C	-2.6291	-1.9116	6.4300
O	-8.5830	0.3902	-2.8941
C	-2.1998	-1.8056	5.1251
H	-0.7467	3.8835	0.1728
O	3.0511	0.8255	-8.4770
H	-1.4615	2.7584	-0.7019
C	-3.6010	-0.0100	9.2314
H	1.1310	3.6806	-1.3128
H	-0.1853	4.3391	-1.9460
N	-1.8106	-0.1650	0.9101
H	0.1756	2.8119	-2.2593
N	-0.8411	0.1882	-1.7694
H	0.6238	2.4817	0.7924
H	-2.9971	-2.7314	6.7419
N	1.8434	0.1246	-0.8001
N	0.8904	-0.2673	1.8622
H	-2.2871	-2.5489	4.5389
Cl	0.0225	-2.3026	-0.2242
H	-3.9171	-0.3051	10.1073
H	-4.3629	0.2878	8.6918
O	-2.9617	-1.0733	8.5852
C	6.5517	0.5995	2.8820
C	-2.3744	0.4787	-3.4319
C	-1.1713	0.5497	-4.0004
Rh	0.0150	-0.0403	0.0524
C	-2.0866	-0.3780	2.2382
C	-3.4972	-0.4850	2.4261
H	6.9315	1.2792	3.4271
C	-4.0681	-0.3420	1.2136
C	-3.0207	-0.1106	0.2513
C	6.7404	-1.5390	1.7917
C	7.3113	-0.4850	2.5071
C	-3.2141	0.1006	-1.1116
C	-2.1998	0.2417	-2.0363
C	9.4744	-1.4782	2.3572
C	-0.1971	0.3367	-2.9734
C	1.1758	0.3671	-3.1601
C	2.1311	0.2989	-2.1207
C	-5.4386	1.2432	-1.2142
C	3.5441	0.3496	-2.3210
C	-6.7360	1.3696	-1.6288
H	7.2452	-2.3165	1.5823
C	4.1103	0.2150	-1.1058
H	-3.2071	0.5709	-3.8791
C	-7.2832	0.3920	-2.4557
C	3.0676	0.0342	-0.1461
H	-0.9920	0.7120	-4.9187
C	3.2351	-0.2055	1.2068
H	3.9994	0.4584	-3.1476
H	9.1819	-2.3423	2.7120
C	2.2302	-0.3909	2.1241
C	-9.3614	1.5374	-2.5591
H	10.3991	-1.3085	2.6335
C	2.4119	-0.6666	3.5191
C	1.6594	0.4815	-4.5687
H	9.4225	-1.4920	1.3778
C	1.2017	-0.6989	4.0763
C	0.2204	-0.4508	3.0714
H	-5.0800	1.9081	-0.6383
C	-4.6248	0.1938	-1.5972
C	-1.1454	-0.4840	3.2611
H	-7.2573	2.1147	-1.3553
C	2.5675	0.6669	-7.2228
C	2.8624	1.6610	-6.2870
*