! UKS B3LYP ma-def2-SVP OPT NumFreq
%basis
NewGTO Pd "ma-def2-TZVP" end
end 

%scf
  maxiter 200
end

%pal 
	nprocs 16
end
* xyz 0 1
P	-5.0045	-0.7768	1.5484
C	6.0401	1.5598	-3.8004
H	-3.4547	3.7224	-0.4251
C	5.6927	1.9592	-5.1328
H	3.4547	-3.7224	0.4251
H	-4.7215	1.9211	0.6029
H	-3.5537	-3.1668	1.8933
H	3.5537	3.1668	-1.8933
H	-1.5004	-4.4887	1.8942
H	1.5004	4.4887	-1.8942
O	5.9267	-0.3463	-1.4325
H	1.0510	-4.0038	3.4776
H	-1.0510	4.0038	-3.4776
O	5.4513	2.0426	-0.7205
H	1.6911	-6.0466	4.3231
O	4.8500	1.3477	-2.9976
H	2.2144	-7.7880	2.9282
H	2.0548	-7.5065	0.6294
H	1.4398	-5.4565	-0.2406
H	-4.9994	-1.2856	-1.0880
H	-6.5427	-1.5216	-0.8873
H	-5.6262	-3.1468	-2.3026
H	-6.2293	-3.8095	-1.0159
H	-4.6801	-3.6080	-1.1409
H	-1.6911	6.0466	-4.3231
H	-6.5575	-0.7408	3.8330
H	-2.2144	7.7880	-2.9282
H	-6.5885	-2.2461	3.3902
H	-2.0548	7.5065	-0.6294
H	-6.4925	-2.0736	5.6505
H	-1.4398	5.4565	0.2406
H	-5.1458	-1.2820	5.5370
H	-5.2079	-2.7873	5.1022
Pd	-0.0000	0.0000	0.0000
C	-1.7899	2.4148	-0.4061
C	1.7899	-2.4148	0.4061
C	-3.1280	2.8799	-0.2031
C	3.1280	-2.8799	0.2031
C	-3.8242	1.8948	0.3640
C	-2.9268	0.7819	0.5342
C	2.9268	-0.7819	-0.5342
C	-3.2746	-0.4768	1.0492
C	3.2746	0.4768	-1.0492
C	-2.3785	-1.5485	1.1619
C	2.3785	1.5485	-1.1619
P	5.0045	0.7768	-1.5484
C	-2.7111	-2.8717	1.6338
C	2.7111	2.8717	-1.6338
C	-1.5832	-3.6004	1.6319
C	1.5832	3.6004	-1.6319
H	4.7215	-1.9211	-0.6029
C	-0.5336	-2.7531	1.1537
C	0.5336	2.7531	-1.1537
C	0.7901	-3.1688	0.9934
C	-0.7901	3.1688	-0.9934
C	1.1641	-4.5188	1.5243
C	-1.1641	4.5188	-1.5243
C	1.2521	-4.7029	2.8984
C	1.6394	-5.9286	3.4019
C	1.9483	-6.9709	2.5744
C	1.8596	-6.7984	1.2007
C	1.4812	-5.5727	0.6811
H	4.9994	1.2856	1.0880
C	-5.6617	-1.8902	-0.7167
H	6.5427	1.5216	0.8873
C	-5.5390	-3.2321	-1.3495
H	5.6262	3.1468	2.3026
C	-6.0401	-1.5598	3.8004
H	6.2293	3.8095	1.0159
C	-5.6927	-1.9592	5.1328
H	4.6801	3.6080	1.1409
C	-1.2521	4.7029	-2.8984
N	-1.6707	1.1314	0.0605
N	1.6707	-1.1314	-0.0605
H	6.5575	0.7408	-3.8330
C	-1.6394	5.9286	-3.4019
N	-1.0355	-1.5106	0.8501
N	1.0355	1.5106	-0.8501
H	6.5885	2.2461	-3.3902
C	-1.9483	6.9709	-2.5744
O	-5.9267	0.3463	1.4325
H	6.4925	2.0736	-5.6505
C	-1.8596	6.7984	-1.2007
O	-5.4513	-2.0426	0.7205
H	5.1458	1.2820	-5.5370
C	-1.4812	5.5727	-0.6811
O	-4.8500	-1.3477	2.9976
H	5.2079	2.7873	-5.1022
C	3.8242	-1.8948	-0.3640
C	5.6617	1.8902	0.7167
C	5.5390	3.2321	1.3495
*