! UKS B3LYP ma-def2-SVP OPT NumFreq
%basis

end 

%scf
  maxiter 200
end

%pal 
	nprocs 16
end
* xyz 0 1
C	6.1218	-2.2631	-2.2195
H	-3.2422	-3.8773	0.4883
C	3.5285	2.0861	0.4270
C	0.1429	4.7299	1.3587
C	-0.6684	5.1051	2.4237
C	0.9779	6.9824	1.1996
C	0.9655	5.6686	0.7469
N	1.4158	1.1960	0.2961
N	1.1319	-1.4578	0.2118
O	5.7214	0.7111	-0.9572
H	0.3314	-4.3211	2.9917
H	0.2452	-6.5100	3.7763
O	5.6549	-1.2958	0.5882
H	-0.7779	-8.1766	2.4913
O	4.9501	-1.5800	-1.7391
H	-1.7454	-7.6119	0.4305
H	-1.6056	-5.4467	-0.3628
Ni	-0.0623	0.0078	0.0821
P	-4.8019	0.5936	-1.7881
H	-3.8931	3.1282	-0.8145
H	-2.2413	4.5180	0.3759
H	5.0206	-0.0779	2.1000
H	6.5661	0.1352	1.7271
H	6.3267	-0.9443	3.7275
H	-4.5589	-2.1122	-0.6496
H	5.5403	-2.1272	2.9895
H	-4.2434	1.0352	-4.7571
H	7.0846	-1.8642	2.6596
H	-3.0312	0.6775	-3.7715
H	-2.7624	3.0820	-3.6622
H	-2.1812	2.2755	-4.9171
H	-3.5732	3.0559	-5.0416
H	-6.5808	-0.0305	0.1639
H	-5.6776	0.9667	1.0381
H	-8.0055	1.2945	1.4271
H	-7.3001	2.6270	0.8908
H	-8.1732	1.7283	-0.1046
C	-0.6371	-4.6464	1.2386
C	-0.0872	-4.9905	2.4646
C	-0.1380	-6.2931	2.9344
H	-1.2102	6.6758	3.6046
C	-0.7455	-7.2816	2.1762
H	0.1744	8.2564	2.5744
C	-1.3095	-6.9463	0.9489
C	-1.2385	-5.6561	0.4880
C	-3.2415	0.3671	-0.9110
C	-2.5204	1.5077	-0.5386
C	-3.0540	2.8402	-0.4748
C	-1.6011	-2.5099	0.3516
C	-1.0123	2.7829	0.4283
C	-2.1463	3.5993	0.1536
C	5.8576	-0.5454	1.8526
C	6.2303	-1.4391	2.8872
C	0.8034	-2.7567	0.5450
C	-0.4903	-3.2516	0.7363
C	-2.9289	-3.0235	0.2136
C	-3.6491	-2.0487	-0.3841
C	-2.8063	-0.9081	-0.5494
C	-3.6837	1.3805	-4.0177
C	-2.9973	2.5361	-4.4418
C	-6.3386	0.9193	0.3023
C	-7.5600	1.7109	0.6596
C	-0.6560	6.4190	2.8764
C	0.1666	7.3576	2.2645
N	-1.2618	1.4827	-0.0041
N	-1.5416	-1.1898	-0.0884
O	-5.3520	-0.6650	-2.2846
O	-4.5198	1.6884	-2.8769
O	-5.7676	1.4566	-0.8998
H	2.0051	-4.5018	0.7793
H	5.1446	-4.0095	-2.5520
H	6.4526	-3.8349	-3.4580
P	5.0103	-0.5179	-0.6160
H	2.9417	3.8624	1.2473
H	3.8742	-3.0933	-0.0376
C	1.9597	-3.5844	0.5394
H	6.6932	-1.6411	-2.7351
H	6.6484	-2.6146	-1.4575
C	5.6715	-3.3762	-3.0830
H	5.1195	-3.0222	-3.8105
H	4.4703	2.1746	0.3483
H	-1.2309	4.4644	2.8419
H	1.5404	7.6231	0.7813
H	1.5197	5.4118	0.0200
C	0.2135	3.2391	0.9009
C	1.3620	2.4987	0.7771
C	2.6967	3.0135	0.8963
C	2.7577	0.9293	0.0587
C	3.2566	-0.3310	-0.2250
C	2.4904	-1.4690	-0.0415
C	2.9822	-2.8053	0.1210
*