! UKS B3LYP ma-def2-SVP OPT NumFreq
%basis

end 

%scf
  maxiter 200
end

%pal 
	nprocs 16
end
* xyz 0 1
Zn	-0.7329	0.7811	0.1275
C	5.2982	0.7005	7.3763
C	1.2464	-2.5998	8.6573
C	-3.9090	-3.5988	-7.0993
C	6.1651	2.9604	6.8516
H	3.2952	3.3135	-2.3827
C	-2.8455	-4.6719	-7.3317
C	-5.2819	-4.2499	-7.2410
H	-2.8646	-3.7779	1.9945
C	-3.8059	-2.5274	-8.1928
H	-3.6856	-3.6884	-0.3504
C	1.2808	1.7460	-8.6247
C	1.5653	3.0654	-9.3309
C	2.4837	0.7970	-8.8517
H	4.0437	3.2635	-0.0144
C	0.0473	1.0829	-9.2875
C	-1.6406	3.4978	1.3205
H	1.4068	-1.6645	6.3096
C	-1.6864	3.3944	2.7431
H	-1.4611	-4.5169	6.2926
C	-3.4775	1.9493	2.6351
H	-2.2287	-3.7659	4.2040
H	3.4881	0.3560	5.6976
C	-3.4756	2.0406	1.1574
H	-2.4235	-1.5060	-6.2627
H	5.9971	3.0741	4.0848
H	4.6452	3.2876	2.2105
H	-4.9267	-4.2637	-4.7001
H	-4.4799	-3.4954	-2.5431
H	-0.4549	0.6282	-6.8548
H	2.5563	3.3255	-6.8690
H	2.4551	3.5271	-4.5670
N	1.1063	2.0075	-0.4310
N	0.0740	0.4594	1.8134
N	-1.9614	-1.1041	0.4705
N	-1.0430	0.5679	-1.7269
H	7.0702	0.0890	5.4178
O	-2.1329	2.3184	0.6130
H	7.8626	1.0037	6.4654
O	-2.9734	3.1102	3.2459
H	7.5303	1.5652	5.0031
H	4.4600	1.0915	7.7013
H	5.9436	0.6505	8.1115
H	1.0555	-5.6485	7.5462
H	5.1264	-0.2004	7.0307
H	2.1801	-4.8424	8.3498
H	6.5222	3.5426	6.1508
H	2.0064	-4.6202	6.7765
H	6.8258	2.8725	7.5725
H	5.3402	3.3479	7.2105
H	-1.0372	-4.9268	8.1742
H	1.8994	-2.1554	8.0797
H	-2.9562	-5.3902	-6.6758
H	-1.9538	-4.2740	-7.2352
H	-2.9428	-5.0388	-8.2368
H	-5.4289	-4.5065	-8.1741
C	5.8634	1.5703	6.2638
H	-5.9750	-3.6160	-6.9647
H	-5.3258	-5.0474	-6.6716
H	-2.8627	-2.3155	-8.3548
H	-4.2756	-1.7179	-7.9024
H	-4.2126	-2.8616	-9.0186
C	7.2038	1.0054	5.7387
H	0.8340	3.6924	-9.1562
H	1.6398	2.9104	-10.2960
H	2.4054	3.4409	-8.9951
H	3.3010	1.2172	-8.5126
H	2.5830	0.6178	-9.8105
H	2.3291	-0.0471	-8.3778
H	-0.1093	0.2061	-8.8788
H	0.2134	0.9692	-10.2463
H	-0.7394	1.6513	-9.1557
H	-0.7031	3.6631	1.0454
H	-2.1772	4.2815	1.0421
H	-1.0640	2.6796	3.0319
H	-1.3695	4.2453	3.1360
H	-4.4036	1.7960	2.9480
H	-2.9314	1.1725	2.9130
H	-1.1270	-3.5850	9.0403
H	-3.8078	1.1897	0.7788
H	-0.1245	-4.7528	9.4782
H	-4.0942	2.7606	0.8741
H	0.5896	-1.9435	8.9719
H	1.7066	-2.9959	9.4263
C	1.4985	2.3610	-1.6968
C	2.8083	2.9621	-1.6456
C	3.2189	2.9345	-0.3530
C	2.1591	2.3076	0.4171
C	2.1744	1.8718	1.7479
C	1.2140	1.0278	2.3029
C	1.6054	0.4525	3.5523
C	0.6545	-0.5070	3.8435
C	-0.2601	-0.4708	2.7261
C	-1.1747	-1.5404	2.7232
C	-1.9595	-1.8798	1.6079
C	-2.7061	-3.0803	1.3685
C	-3.1491	-3.0390	0.0856
C	-2.6412	-1.8126	-0.4914
C	-2.6278	-1.4095	-1.8295
C	-1.8526	-0.3571	-2.3316
C	-1.7017	-0.3588	-3.7545
C	-0.7699	0.6144	-4.0542
C	-0.3823	1.1483	-2.7508
C	0.7290	1.9889	-2.8284
C	3.2246	1.9476	2.8113
C	2.8943	1.0726	3.8949
C	-0.8864	-2.2570	4.0189
C	0.2077	-1.6317	4.6860
C	3.7229	0.9503	4.9942
C	0.6602	-2.0847	5.8973
C	4.9087	1.6944	5.0795
C	5.2047	2.5539	4.0306
C	0.0301	-3.1699	6.5293
C	4.3989	2.6917	2.9069
C	-1.0334	-3.7762	5.8798
C	-1.4974	-3.3301	4.6268
C	-3.1338	-2.0744	-3.0839
C	-2.5552	-1.4612	-4.2375
C	-2.8302	-1.9211	-5.5110
C	-3.7066	-3.0028	-5.6986
C	-4.3081	-3.5506	-4.5841
C	-4.0389	-3.0993	-3.2853
C	0.9791	2.1353	-4.2820
C	0.0970	1.2758	-5.0227
C	0.1523	1.1948	-6.3940
C	1.0937	1.9390	-7.1209
C	1.9262	2.7967	-6.3927
C	1.8804	2.9173	-5.0142
C	0.5438	-3.6797	7.8832
C	1.5328	-4.7959	7.6147
C	-0.5274	-4.2878	8.7155
*