! UKS B3LYP ma-def2-SVP OPT NumFreq
%basis

end 

%scf
  maxiter 200
end

%pal 
	nprocs 16
end
* xyz 0 1
Zn	0.1668	-2.7983	-0.6204
H	1.1141	-0.0220	-5.3809
H	0.0461	-7.6989	0.9844
H	3.1642	-1.7459	-4.7071
O	-0.6169	6.7613	1.5339
H	-0.8171	5.4115	3.0151
O	0.0727	11.3320	1.0287
H	-2.2182	5.8862	2.3856
O	-1.6943	-3.1757	-1.5684
H	2.0258	1.5719	-6.8224
H	-1.6193	7.4801	3.9058
H	3.3065	-4.1946	-4.4827
H	1.3284	-7.8147	-1.1021
H	-1.9617	-3.7696	3.9651
H	0.6137	2.1386	-2.0880
H	-3.3535	1.1209	0.7935
H	3.2784	1.4869	-2.3464
H	-2.2698	-1.3373	3.6780
H	-3.5630	3.4917	4.0732
H	-4.4325	2.8116	2.0213
H	-0.5997	0.7950	3.7624
H	-2.6592	-6.7638	1.7549
H	0.1149	8.8899	0.5032
H	3.5630	3.1328	-6.0175
H	0.3448	-5.7319	4.2431
H	-1.7240	9.6739	4.7305
H	-2.2964	-8.5774	5.3421
H	-1.6912	2.4810	4.9360
H	-0.4168	-7.3258	5.7802
H	1.0610	-6.0885	-4.7536
H	0.2478	3.1729	1.8085
H	-3.3910	-8.3554	3.2949
H	4.1603	3.1210	-3.7664
H	4.6826	-8.7002	-3.4179
H	3.8413	-7.0259	-1.9845
H	3.6318	-9.0780	-5.4639
H	1.8710	-7.7887	-6.1278
H	-1.3018	12.1864	4.3795
O	0.3432	13.4686	0.5890
H	-2.8265	-4.2796	-2.6747
H	-1.2768	-4.3009	-3.0784
H	-1.7772	-5.0920	-1.7804
H	-2.1666	-2.6314	-1.8095
C	-0.3292	1.4727	-0.3969
C	-0.6216	-5.0849	1.8328
C	1.8288	-5.3045	-2.3513
C	1.5145	-0.4518	-2.7834
C	-1.0907	-6.0908	2.8454
C	1.7396	0.6085	-5.0464
C	1.8538	-1.7954	-3.0014
C	-1.2315	4.5189	1.2067
C	-0.9093	-3.7271	2.0991
C	1.9867	-3.9892	-2.8058
C	2.0977	0.5730	-3.7263
C	0.3151	-6.9622	0.4474
H	-0.5888	13.8370	2.9788
C	2.7264	-2.2772	-4.0515
C	-1.2799	5.6524	2.1730
C	2.2807	1.5601	-5.9064
C	-1.8445	0.8045	2.1174
C	0.0524	-5.5619	0.7193
C	-1.2940	8.2051	3.3868
C	2.8046	-3.6090	-3.9296
C	-1.1251	-0.2416	1.3287
C	-0.4809	0.1362	0.1440
C	1.0031	-7.0259	-0.6872
C	-1.6474	-3.2453	3.2370
C	0.3776	1.4090	-1.5260
C	0.7138	0.0228	-1.7254
C	-2.9985	1.3972	1.6295
C	3.0141	1.5082	-3.2586
C	2.3964	-6.4002	-3.2060
C	1.1626	-5.6681	-1.1713
C	-1.8116	-1.9206	3.0845
C	-3.1345	2.7998	3.5841
C	-1.1627	-1.5522	1.8580
C	-3.6459	2.4031	2.3626
C	-1.3691	1.2106	3.3894
C	-2.1963	-6.8725	2.5774
C	-0.2682	9.0457	1.3577
C	3.1892	2.4858	-5.4288
C	-0.4199	-6.2561	4.0448
C	-0.7342	7.9878	2.1206
C	-1.3628	9.5109	3.8680
C	-1.9805	-7.9563	4.6983
C	-2.0243	2.2071	4.0885
C	-0.8812	-7.2054	4.9612
C	1.7912	-6.6245	-4.4693
C	-0.4371	3.4044	1.1915
C	-2.6373	-7.8123	3.4941
C	3.5489	2.4740	-4.1024
C	3.9351	-8.1760	-3.6788
C	-0.9109	10.5901	3.1001
C	-0.3652	10.3138	1.8519
C	3.4379	-7.1676	-2.8338
C	3.3175	-8.3861	-4.8937
C	2.2776	-7.6305	-5.2841
C	-0.5403	12.9326	2.6911
C	-0.0258	12.6540	1.4077
C	-0.9656	11.9644	3.5195
C	-1.9086	-4.2914	-2.3294
N	-0.8343	2.7136	0.1163
N	0.1712	-0.7194	-0.7073
N	-0.6028	-2.6722	1.2769
N	-1.8460	3.3430	-0.5279
N	-2.0790	4.4434	0.1570
N	1.4128	-2.8626	-2.2589
N	0.5778	-4.8058	-0.2851
*