! UKS B3LYP ma-def2-SVP OPT NumFreq
%basis
NewGTO Sn "ma-def2-TZVP" end
end 

%scf
  maxiter 200
end

%pal 
	nprocs 16
end
* xyz 0 1
H	-4.1635	-2.6960	1.3600
H	0.3747	-5.2268	1.7797
H	-8.4777	-1.4504	-0.9868
H	-6.9303	-2.6124	-2.2104
H	-4.6721	-2.2473	-1.8836
H	-0.9124	-0.1423	-3.5110
H	-2.3233	-1.0436	-5.0569
H	-1.7830	-4.6647	-3.4620
C	-2.7124	-1.3898	0.5565
C	-3.2693	-2.4413	1.3469
C	-2.2795	-3.0014	2.0695
C	-3.4058	-0.5392	-0.3053
C	-4.8701	-0.8058	-0.4978
C	-5.8121	-0.1055	0.2033
C	-7.1610	-0.3571	0.0295
H	2.9106	-3.0014	2.9930
C	-7.5708	-1.2873	-0.8650
H	4.4879	-1.3719	2.0936
C	-6.6489	-1.9827	-1.5872
C	-5.2959	-1.7559	-1.3990
C	-0.4715	-1.8195	-2.4609
C	-1.0890	-1.0555	-3.4771
C	-1.9300	-1.5857	-4.4123
C	-2.1857	-2.9337	-4.3812
H	5.5415	-0.5501	-0.8049
C	-1.6099	-3.7505	-3.4597
H	7.7882	-0.1134	-0.5288
C	-0.7604	-3.1944	-2.5149
N	-1.3602	-1.3405	0.8257
N	-3.0631	-3.5465	-5.3774
N	-0.1283	-4.1404	-1.5861
O	0.3523	-1.3005	-1.6418
O	-3.4265	-2.8671	-6.3371
O	-3.3682	-4.7284	-5.2198
O	-0.0311	-5.2934	-1.9641
O	0.2803	-3.7684	-0.5181
C	1.4113	-1.9976	1.8840
H	-2.3707	-3.6997	2.6773
C	2.7069	-2.3070	2.4084
C	3.5788	-1.4126	1.9036
C	2.8676	-0.5332	1.0240
H	0.7213	-6.9826	3.2310
H	0.8311	-6.6464	5.4679
H	0.5971	-4.5224	6.3145
H	0.2486	-2.7278	4.8763
C	-1.0568	-2.3239	1.7325
C	0.2098	-2.6363	2.2249
N	1.5483	-0.9274	1.0289
C	0.3288	-3.7932	3.1779
C	0.4352	-5.0686	2.6937
C	0.6317	-6.1211	3.5695
C	0.6955	-5.9271	4.8943
C	0.5578	-4.6637	5.3958
C	0.3597	-3.5853	4.5335
H	2.3707	3.6997	-2.6773
H	-0.7213	6.9826	-3.2310
H	-0.8311	6.6464	-5.4679
H	-0.5971	4.5224	-6.3145
H	-0.2486	2.7278	-4.8763
C	1.0568	2.3239	-1.7325
C	-0.2098	2.6363	-2.2249
H	-2.9106	3.0014	-2.9930
H	-4.4879	1.3719	-2.0936
C	-0.3288	3.7932	-3.1779
C	-0.4352	5.0686	-2.6937
C	-0.6317	6.1211	-3.5695
C	-0.6955	5.9271	-4.8943
H	-5.5415	0.5501	0.8049
C	-0.5578	4.6637	-5.3958
H	-7.7882	0.1134	0.5288
C	-0.3597	3.5853	-4.5335
C	-1.4113	1.9976	-1.8840
C	-2.7069	2.3070	-2.4084
C	-3.5788	1.4126	-1.9036
C	-2.8676	0.5332	-1.0240
Sn	0.0000	0.0000	0.0000
H	4.1635	2.6960	-1.3600
H	-0.3747	5.2268	-1.7797
H	8.4777	1.4504	0.9868
H	6.9303	2.6124	2.2104
N	-1.5483	0.9274	-1.0289
H	4.6721	2.2473	1.8836
H	0.9124	0.1423	3.5110
H	2.3233	1.0436	5.0569
H	1.7830	4.6647	3.4620
C	2.7124	1.3898	-0.5565
C	3.2693	2.4413	-1.3469
C	2.2795	3.0014	-2.0695
C	3.4058	0.5392	0.3053
C	4.8701	0.8058	0.4978
C	5.8121	0.1055	-0.2033
C	7.1610	0.3571	-0.0295
C	7.5708	1.2873	0.8650
C	6.6489	1.9827	1.5872
C	5.2959	1.7559	1.3990
C	0.4715	1.8195	2.4609
C	1.0890	1.0555	3.4771
C	1.9300	1.5857	4.4123
C	2.1857	2.9337	4.3812
C	1.6099	3.7505	3.4597
C	0.7604	3.1944	2.5149
N	1.3602	1.3405	-0.8257
N	3.0631	3.5465	5.3774
N	0.1283	4.1404	1.5861
O	-0.3523	1.3005	1.6418
O	3.4265	2.8671	6.3371
O	3.3682	4.7284	5.2198
O	0.0311	5.2934	1.9641
O	-0.2803	3.7684	0.5181
*