! UKS B3LYP ma-def2-SVP OPT NumFreq
%basis

end 

%scf
  maxiter 200
end

%pal 
	nprocs 16
end
* xyz 0 1
Zn	-2.5054	0.7836	-2.0234
H	7.7733	-8.3706	5.9081
H	5.8689	-7.8160	4.6740
H	-1.3038	3.4493	-6.7241
H	-3.4629	2.0252	-6.9421
H	-5.6797	2.2212	-5.8472
H	-7.4003	0.3343	-4.8766
H	0.3575	4.0685	-2.7106
H	-9.5618	0.9911	-5.5306
H	-6.5760	0.2446	1.0912
H	-0.2931	4.3104	-4.0967
H	-10.5880	2.8134	-4.5620
H	-0.2944	5.4384	-3.0333
H	-4.7938	1.6166	2.9672
H	-9.4294	4.0831	-2.9934
C	-0.4153	0.8201	-4.2672
H	-7.2472	3.4993	-2.3793
H	-5.5061	1.1016	5.1463
H	-7.5726	0.9285	-1.0597
H	-5.3557	-1.0564	5.9371
H	-4.5713	-2.7515	4.5583
C	-0.1954	0.4594	-7.3293
H	-3.9013	-2.2740	2.3690
H	-1.6858	-0.6269	2.8524
C	0.3035	0.6929	-8.6112
C	0.1929	1.9397	-9.1778
C	-0.4114	2.9760	-8.4871
C	-0.2108	-0.5706	1.4040
C	-0.3561	-0.2124	-0.0085
C	0.6571	-0.1248	-0.9782
H	-3.6300	4.0748	-2.8913
C	2.0755	-0.3796	-0.5697
H	-2.8829	4.2791	-4.2364
H	-2.8842	5.4071	-3.1710
C	2.7403	0.4782	0.3022
C	4.0506	0.2155	0.6916
C	4.7129	-0.9000	0.1878
C	4.0712	-1.7403	-0.7049
C	2.7583	-1.4880	-1.0918
C	-1.3360	1.2392	-5.2329
C	-0.8023	1.4936	-6.6106
C	0.9773	-0.9709	2.2142
C	0.4810	0.2155	-2.3270
C	1.3631	-0.2078	3.3010
C	1.5560	0.3718	-3.2771
C	2.4857	-0.5435	4.0533
C	1.0146	0.7430	-4.4487
C	-0.8988	2.7383	-7.2059
C	3.2598	-1.6485	3.7203
C	-2.7158	1.4393	-5.0274
C	2.8226	-2.4596	2.6802
C	-3.6583	1.8522	-6.0293
C	1.6936	-2.1364	1.9332
C	-4.8658	1.9481	-5.4392
C	4.5457	-1.9509	4.4206
C	-4.6870	1.5603	-4.0675
C	5.3481	-0.9188	4.9232
C	-5.7222	1.4831	-3.1184
C	6.5761	-1.2461	5.5287
C	-7.1071	1.8563	-3.5558
C	7.4749	-0.1828	6.0352
C	8.7055	-0.4997	6.6147
C	-7.8002	1.1099	-4.4978
C	9.5067	0.5094	7.0921
C	-9.1002	1.4915	-4.8680
C	-9.7020	2.5757	-4.3169
C	9.0579	1.8042	7.0178
C	-6.1041	0.4469	0.2911
C	-9.0153	3.3242	-3.3852
C	7.8080	2.0419	6.4720
C	-4.6780	0.4052	0.1163
C	-7.7153	2.9697	-3.0131
C	4.9932	-3.2540	4.5793
C	-5.5601	1.0620	-1.8016
C	-3.7535	0.0376	1.1046
C	6.2328	-3.4958	5.1862
C	-6.6467	0.8326	-0.8724
C	-4.2640	-0.2995	2.4655
C	6.7150	-4.8845	5.4018
C	-4.7475	0.7263	3.2936
C	7.8710	-5.1430	6.1232
C	-5.1679	0.4156	4.5835
C	8.2619	-6.4378	6.3376
C	-5.0882	-0.8562	5.0474
C	7.5225	-7.4615	5.7897
C	-4.6176	-1.8591	4.2358
C	6.3871	-7.1196	5.0598
C	-4.2151	-1.5797	2.9381
C	-2.3673	-0.1067	0.8957
C	-1.4569	-0.4768	1.9420
C	-0.3536	4.5001	-3.1689
N	7.0236	1.0745	5.9713
N	7.0017	-2.5032	5.6484
N	5.9897	-5.8769	4.8664
H	-0.1234	-0.4038	-6.9420
H	0.7176	-0.0118	-9.0950
H	0.5363	2.0920	-10.0491
H	-0.4924	3.8350	-8.8861
H	2.2967	1.2517	0.6281
H	4.4917	0.7951	1.3001
H	5.6065	-1.0856	0.4547
H	4.5264	-2.4971	-1.0550
C	-1.6369	3.8830	-2.7010
H	2.3275	-2.0614	-1.7144
C	-2.8688	4.4668	-3.3056
N	-1.6845	0.0668	-0.2733
N	-0.7226	0.4917	-2.9587
H	0.8590	0.5636	3.5307
N	-3.3638	1.2678	-3.8344
H	2.7223	-0.0181	4.8072
N	-4.3617	0.7888	-1.1721
H	2.4805	0.2363	-3.0994
H	3.3035	-3.2540	2.4732
H	1.4878	0.9244	-5.2511
H	1.4068	-2.7077	1.2297
H	5.0703	-0.0118	4.8597
H	8.9897	-1.4046	6.6728
H	10.3566	0.3176	7.4705
O	-1.7063	2.9843	-1.8867
H	9.5915	2.5235	7.3355
H	7.4852	2.9364	6.4499
H	4.4621	-3.9796	4.2728
H	8.3841	-4.4237	6.4709
H	9.0347	-6.6275	6.8566
*