! UKS B3LYP ma-def2-SVP OPT NumFreq
%basis

end 

%scf
  maxiter 200
end

%pal 
	nprocs 16
end
* xyz 0 1
O	-2.1200	0.9186	-0.7500
H	-5.2792	-2.8483	6.5006
H	-1.1188	-3.9968	6.8020
H	-1.0762	-2.4626	7.2690
H	-0.3933	-4.0219	8.9911
H	-1.9107	-4.5517	9.0260
H	-2.6306	-2.3369	11.3540
H	-2.4054	-3.8844	11.0226
H	-1.0624	-3.0293	12.8188
H	-0.2635	-2.1659	11.7344
H	-0.0019	-5.2626	13.2413
H	-1.3027	-5.3615	12.3073
H	0.1722	-7.2897	12.1783
H	-9.0298	-1.3661	4.4811
Zn	-0.3474	0.0902	-0.0048
H	-9.5129	-2.5632	5.4379
Si	-1.0767	-6.4693	-4.3704
H	0.8509	5.7999	-12.0283
H	-10.8831	-3.4669	3.6803
H	3.1062	6.3246	-11.2858
H	1.2365	-6.3373	11.4444
H	2.6577	7.1210	-12.6046
H	-10.4415	-2.2095	2.7843
H	-0.7673	2.4952	4.5363
H	-7.2626	-3.3345	5.5661
H	3.0381	6.8025	7.7249
H	-9.4929	-3.7033	1.1982
H	-7.4036	-1.8456	6.1545
H	4.8796	7.3776	-13.2136
H	-11.0726	-3.9398	1.3591
H	-10.9595	-6.3306	0.7892
H	-3.1194	-3.8794	1.8654
H	-2.4300	-4.6305	-0.4039
H	0.7356	-2.6890	-4.2104
H	2.0510	-0.6267	-4.5342
H	3.1210	3.6621	-1.4978
H	1.2358	4.4988	6.9468
H	1.4982	7.1160	7.4242
H	-1.5170	-2.4559	5.0302
H	2.7964	4.3831	7.2818
O	6.5734	2.0465	-3.4648
H	-4.6948	-1.4214	2.7424
O	8.9076	3.5796	-2.7271
H	1.6347	7.6157	2.5116
O	-10.3755	-8.1882	2.4165
H	4.1415	7.1026	3.7690
H	3.4997	6.1721	2.6365
H	3.9417	7.6693	2.2860
H	2.5815	9.6243	3.1738
H	1.3406	9.3342	4.1433
O	3.3622	2.7638	-6.8798
H	2.8348	9.0777	4.6567
H	3.3010	5.8921	5.6075
H	2.6435	7.8755	6.6035
H	1.1216	-7.5110	9.4513
H	5.3323	6.5879	-11.8981
H	-0.2739	7.8672	5.5389
H	5.8330	6.0983	-13.3377
H	-9.4839	-5.8813	0.3469
H	-1.3181	5.1996	5.3836
H	-8.6049	-7.4657	1.9189
H	-0.6690	5.8485	6.6947
H	-9.3934	-8.1481	0.7023
H	-2.0524	6.4135	6.1209
H	-9.0464	-9.2078	3.4417
H	-2.0873	7.7548	4.0119
H	-10.5266	-9.8130	3.5111
H	-0.7243	8.0901	3.2416
H	-9.6468	-9.9975	2.1875
H	-1.3293	6.6097	3.1894
H	-1.7334	-7.7960	-2.5284
H	-4.0536	-7.7407	-2.6135
H	10.9697	5.0470	-0.7176
H	-3.5016	-6.2502	-2.7927
H	9.3722	4.9314	-0.6032
H	-4.0250	-7.0667	-4.0645
H	9.0979	7.3373	-0.8580
H	-2.7208	-9.0468	-4.8985
H	10.6993	7.4631	-0.8770
H	-1.3111	-9.4140	-4.2355
H	9.5817	9.2521	-2.0363
H	-2.6692	-9.6990	-3.4377
H	9.0776	8.1723	-3.1100
H	-2.7825	-6.2284	-5.9432
H	10.5609	10.1323	-4.1889
H	-0.4531	-7.1215	-7.2520
H	11.7746	9.2973	-4.8114
H	-1.7202	-8.0073	-6.8392
H	10.2736	8.7692	-4.9721
H	-1.8608	-6.8906	-7.9764
H	-2.2424	-4.6205	-7.3845
H	-2.0597	-4.0940	-5.8833
H	-0.7760	-4.4880	-6.7544
H	0.7440	-7.8765	-5.0104
H	1.2853	-5.7958	-6.0184
H	0.7070	-8.0878	-2.6583
H	1.6841	2.0375	-4.9411
H	1.8000	1.5429	-7.2075
H	1.4040	3.1038	-7.1747
H	3.0352	1.9151	-9.2289
H	2.5866	3.4593	-9.2066
H	2.0591	1.6787	-11.2142
H	0.5136	1.2696	-11.2168
H	-0.0173	3.6102	-11.4301
H	0.7097	2.9781	-12.7127
C	-0.7724	-3.0042	11.8728
C	-0.3154	-5.2945	12.3029
H	2.5384	-6.3659	-5.2033
C	0.2718	-6.4832	11.6108
H	1.6501	-5.1889	-4.5820
H	1.2804	-6.6023	-2.5054
H	2.1860	-7.7457	-3.1636
C	0.1743	-7.7055	9.6034
C	-0.4099	7.0322	5.0030
H	5.5882	2.6981	-5.8315
H	4.5487	1.4322	-2.1320
C	-1.2097	7.4061	3.7477
H	2.2379	3.8633	5.8747
C	1.6543	5.3321	-12.3701
C	2.8638	6.2240	-12.2416
H	7.6534	1.8564	-5.1398
H	7.3978	3.3805	-4.7082
H	9.6555	2.5824	-4.2817
H	9.0307	1.6351	-3.1465
H	10.3267	2.9328	-1.4863
H	-4.3341	2.3342	-1.3388
H	10.8919	3.7728	-2.7309
H	-5.3318	1.9503	-0.1485
H	-4.0460	2.8540	0.1489
C	-3.3217	-2.7260	5.9416
C	0.9794	4.8698	3.4961
C	-4.6942	-2.5988	5.7950
H	-3.7902	-1.3275	-1.1925
C	3.5622	7.0875	2.9780
H	-5.1870	-0.6837	-0.7489
C	2.2374	9.0383	3.8808
H	-4.4006	-0.0952	-2.0117
C	2.3699	5.9204	5.9712
C	-0.2993	1.7278	2.5957
C	2.3886	7.0272	7.0256
C	2.1680	7.5888	3.3572
C	2.1394	4.5440	6.5718
C	-1.5224	-3.3340	7.4155
C	-0.8679	1.7878	3.9094
C	-1.5715	0.6511	4.0889
C	-1.1826	6.0329	5.8804
C	-1.3376	-3.7697	8.8298
C	-1.4394	-0.1306	2.8875
C	-1.9804	-2.9908	10.9935
C	-10.2053	-3.1382	3.0366
C	-2.0610	-1.3623	2.6528
C	-10.2000	-4.0063	1.8217
C	-1.9418	-2.1288	1.4798
C	-2.5576	-3.4094	1.2595
C	-2.1826	-3.8174	0.0227
C	-1.3388	-2.7879	-0.5250
C	-0.7314	-2.8193	-1.7990
C	0.1013	-1.8339	-2.3506
C	0.7846	-1.9538	-3.6117
C	1.5041	-0.8334	-3.7860
C	1.2947	-0.0017	-2.6266
C	1.9537	1.2045	-2.3728
C	1.8156	1.9769	-1.2031
C	2.4942	3.2249	-0.9334
C	2.0703	3.6501	0.2708
C	1.1423	2.6709	0.7643
C	0.5132	2.7266	2.0244
C	5.0860	6.4940	-12.8419
C	-2.9800	-1.8530	3.7298
C	-2.4560	-2.3614	4.9206
C	10.1310	4.9647	-1.2372
C	-5.2016	-2.1045	4.6066
O	1.8741	4.1391	-11.6210
C	-4.3400	-1.7422	3.5626
C	9.8987	7.3206	-1.4402
C	9.8021	8.3901	-2.4699
O	3.9492	5.6582	-12.9532
C	10.8989	9.2336	-4.3781
C	-7.4669	-2.3941	5.3323
C	-8.8425	-2.2982	4.7577
C	-10.0221	-6.2418	1.0961
C	-9.4961	-7.5730	1.5020
C	-9.8598	-9.3922	2.9272
C	-0.9422	-3.9895	-2.6111
C	-1.0691	-4.9395	-3.3429
C	-2.1468	-7.6862	-3.4325
C	-3.5594	-7.1363	-3.2052
C	-2.2191	-9.0887	-4.0575
C	-1.8008	-6.0869	-6.0690
C	-1.4255	-7.1187	-7.1295
C	-1.7121	-4.7077	-6.5637
C	0.7189	-7.0466	-4.4519
C	2.9673	1.6624	-3.3802
C	2.5986	2.0355	-4.6806
C	3.5869	2.4020	-5.5809
C	2.0915	2.4528	-7.4644
Si	1.2912	6.3827	4.5052
C	2.3201	2.5406	-8.9511
C	1.1507	1.9860	-10.9717
O	9.9889	6.0745	-2.1072
C	0.8273	3.2128	-11.7588
O	11.0235	8.5061	-3.1600
O	-9.9598	-5.3563	2.2036
O	-2.9222	-3.2166	7.1573
O	-1.7051	-2.6650	9.6553
O	0.0851	-4.1151	11.6186
H	2.3342	4.4485	0.7128
O	-0.4062	-6.6690	10.3864
C	0.7652	3.9012	2.8208
H	0.0863	-8.5606	10.0766
C	1.6315	-6.0037	-5.1252
C	1.2728	-7.4020	-3.0698
C	-4.3951	2.1104	-0.3859
C	-4.3014	-0.4938	-1.1224
S	-3.4386	0.6423	-0.0572
H	-0.2900	-7.7625	8.7409
N	-0.6433	0.5503	1.9925
C	4.9234	2.4323	-5.2070
N	-1.1947	-1.7729	0.3806
H	-2.0649	0.4111	4.8655
C	5.2830	2.0757	-3.9254
N	0.4207	-0.6341	-1.7734
C	4.2994	1.6850	-3.0126
N	0.9912	1.6626	-0.1451
O	-6.5378	-1.9181	4.3499
O	-8.9215	-3.1606	3.6385
C	7.6036	2.4741	-4.3679
H	1.5006	5.1074	-13.3230
C	8.9099	2.4860	-3.6384
C	10.1616	3.7190	-2.0642
O	1.0928	2.1931	-9.5623
*