! UKS B3LYP ma-def2-SVP OPT NumFreq
%basis

end 

%scf
  maxiter 200
end

%pal 
	nprocs 16
end
* xyz 0 1
H	2.0380	7.1211	-2.3150
H	-2.8320	-0.7963	-4.5920
H	0.3951	0.5478	-5.0890
H	0.0644	-3.4986	-6.9681
H	-2.5533	-4.3859	-0.6928
H	-2.1534	-3.5690	-2.9625
H	3.8184	2.8993	-2.7967
H	4.8037	4.6758	-3.8625
C	1.1065	1.7587	-2.2671
H	0.6441	-2.7342	-4.8657
H	-3.4242	-1.5439	-6.6920
C	1.5977	2.7229	-1.3832
C	-2.2476	-1.3385	-5.0697
C	2.2803	3.9104	-1.9774
C	-1.1151	-1.9547	-2.0621
C	-1.0305	-1.6855	-4.5145
C	-0.5201	-2.9537	-6.4906
C	-1.5083	-2.6582	-0.0211
C	1.7659	5.1832	-1.8332
C	-1.7410	-2.5963	-7.0348
C	1.1565	1.8403	-3.7072
C	-2.0995	-3.6093	-0.9274
C	2.3783	6.2638	-2.4335
C	0.5239	0.7560	-4.1913
C	0.0846	-0.0206	-3.0651
C	-0.6595	-1.1922	-3.1439
C	-1.8717	-3.1656	-2.1737
C	3.4406	3.7463	-2.7222
C	3.5050	6.0612	-3.2152
C	4.0395	4.8062	-3.3495
C	4.0827	7.1548	-3.9427
C	-0.1759	-2.4941	-5.2331
N	0.4643	0.6031	-1.9063
C	-2.1428	-3.0634	-8.3358
C	-2.6042	-1.7868	-6.3250
N	4.5374	7.9971	-4.5622
Zn	0.0000	0.0000	0.0000
H	2.8320	0.7963	4.5920
H	-0.0644	3.4986	6.9681
N	-0.9036	-1.6705	-0.7404
H	2.5533	4.3859	0.6928
H	2.1534	3.5690	2.9625
N	-2.5196	-3.4208	-9.3521
H	-0.6441	2.7342	4.8657
H	3.4242	1.5439	6.6920
H	-0.9979	-5.3136	1.3261
H	-1.5525	-2.5166	4.2072
H	-2.0380	-7.1211	2.3150
C	2.2476	1.3385	5.0697
H	-0.3951	-0.5478	5.0890
C	1.1151	1.9547	2.0621
C	1.0305	1.6855	4.5145
H	-3.8184	-2.8993	2.7967
C	0.5201	2.9537	6.4906
H	-4.8037	-4.6758	3.8625
C	-1.1065	-1.7587	2.2671
C	1.5083	2.6582	0.0211
C	1.7410	2.5963	7.0348
C	2.0995	3.6093	0.9274
C	-0.0846	0.0206	3.0651
C	-1.5977	-2.7229	1.3832
C	0.6595	1.1922	3.1439
C	1.8717	3.1656	2.1737
C	-2.2803	-3.9104	1.9774
C	0.1759	2.4941	5.2331
C	2.1428	3.0634	8.3358
C	2.6042	1.7868	6.3250
C	-1.7659	-5.1832	1.8332
C	-1.1565	-1.8403	3.7072
C	-2.3783	-6.2638	2.4335
C	-0.5239	-0.7560	4.1913
N	0.9036	1.6705	0.7404
C	-3.4406	-3.7463	2.7222
N	2.5196	3.4208	9.3521
C	-3.5050	-6.0612	3.2152
C	-4.0395	-4.8062	3.3495
C	-4.0827	-7.1548	3.9427
N	-0.4643	-0.6031	1.9063
N	-4.5374	-7.9971	4.5622
H	0.9979	5.3136	-1.3261
H	1.5525	2.5166	-4.2072
*