! UKS B3LYP ma-def2-SVP OPT NumFreq
%basis
NewGTO I "ma-def2-TZVP" end
NewGTO Br "ma-def2-TZVP" end
NewGTO Sn "ma-def2-TZVP" end
end 

%scf
  maxiter 200
end

%pal 
	nprocs 16
end
* xyz 0 1
I	7.6060	-5.7666	-2.3335
H	4.5610	-6.1012	-1.8932
H	-4.5610	6.1012	1.8932
H	-3.3817	-0.8460	-6.7888
H	4.6962	-1.7966	1.0734
H	5.0631	-1.5733	-1.3910
H	6.8762	-2.8829	-1.9536
H	4.2029	4.3034	4.9899
I	-7.6060	5.7666	2.3335
C	4.9593	-2.4948	-1.4579
C	6.0432	-3.2717	-1.8138
C	5.8752	-4.6122	-1.9544
C	3.9336	2.6401	6.0356
C	3.8348	3.4494	4.9684
Sn	0.0000	0.0000	0.0000
H	4.2987	-0.1238	2.7695
H	-4.2987	0.1238	-2.7695
H	1.9175	-3.5426	-3.2012
H	-1.9175	3.5426	3.2012
H	-0.3104	-3.1209	-4.0855
H	0.3104	3.1209	4.0855
H	2.7804	-4.8206	-1.1622
H	-2.7804	4.8206	1.1622
H	-2.3594	-0.0847	-4.9366
H	2.3594	0.0847	4.9366
H	-3.1361	-3.5535	-3.1019
H	3.1361	3.5535	3.1019
H	-0.0469	3.7983	-4.2080
H	0.0469	-3.7983	4.2080
H	1.0556	1.6215	-7.3768
H	-1.0556	-1.6215	7.3768
H	1.3785	0.0916	-3.6799
H	-1.3785	-0.0916	3.6799
C	2.4426	0.2468	1.8519
C	-2.4426	-0.2468	-1.8519
C	3.7150	-0.3471	2.0816
C	-3.7150	0.3471	-2.0816
C	3.9323	-1.2715	1.1516
C	-3.9323	1.2715	-1.1516
C	2.8050	-1.3185	0.3055
C	-2.8050	1.3185	-0.3055
C	2.5871	-2.1550	-0.7859
C	-2.5871	2.1550	0.7859
C	1.4184	-2.2585	-1.5858
C	-1.4184	2.2585	1.5858
C	1.2722	-2.9957	-2.8145
C	-1.2722	2.9957	2.8145
C	0.0484	-2.7593	-3.3074
C	-0.0484	2.7593	3.3074
C	-0.6117	-1.8434	-2.4123
C	0.6117	1.8434	2.4123
C	-1.8482	-1.2516	-2.6370
C	1.8482	1.2516	2.6370
C	3.7387	-3.0490	-1.2014
C	-3.7387	3.0490	1.2014
C	4.6702	-5.1883	-1.7541
C	-4.6702	5.1883	1.7541
C	3.5985	-4.4177	-1.3440
C	-3.5985	4.4177	1.3440
C	-2.5992	-1.7482	-3.8041
C	2.5992	1.7482	3.8041
I	-4.8264	-3.3449	-7.8337
C	-2.7200	-0.9421	-4.9429
C	-3.3416	-1.3812	-6.0287
C	2.7200	0.9421	4.9429
C	3.3416	1.3812	6.0287
C	-3.1851	-3.0019	-3.8494
C	3.1851	3.0019	3.8494
C	0.3660	2.0567	-2.2381
C	-0.3660	-2.0567	2.2381
C	0.6084	1.9082	-3.7266
C	-0.6084	-1.9082	3.7266
C	0.2865	3.0072	-4.5646
C	-0.2865	-3.0072	4.5646
C	0.4763	2.8733	-5.8781
C	-0.4763	-2.8733	5.8781
H	-4.6962	1.7966	-1.0734
C	-0.9519	-1.7054	6.4561
C	1.2683	0.6525	-5.5746
C	-1.2683	-0.6525	5.5746
C	1.1210	0.7852	-4.2441
C	-1.1210	-0.7852	4.2441
H	-5.0631	1.5733	1.3910
C	0.9519	1.7054	-6.4561
H	-6.8762	2.8829	1.9536
Br	0.1144	4.3149	-7.0468
Br	-0.1144	-4.3149	7.0468
Br	1.9099	-0.9843	-6.3208
Br	-1.9099	0.9843	6.3208
N	1.9095	-0.3639	0.7785
N	-1.9095	0.3639	-0.7785
N	0.2481	-1.5705	-1.3624
H	-4.2029	-4.3034	-4.9899
N	-0.2481	1.5705	1.3624
O	-0.8936	-1.1136	1.5606
O	0.8936	1.1136	-1.5606
O	0.2737	-2.9643	1.7864
O	-0.2737	2.9643	-1.7864
I	4.8264	3.3449	7.8337
H	3.3817	0.8460	6.7888
C	-4.9593	2.4948	1.4579
C	-6.0432	3.2717	1.8138
C	-5.8752	4.6122	1.9544
C	-3.9336	-2.6401	-6.0356
C	-3.8348	-3.4494	-4.9684
*