! UKS B3LYP ma-def2-SVP OPT NumFreq
%basis

end 

%scf
  maxiter 200
end

%pal 
	nprocs 16
end
* xyz 0 1
H	6.2383	5.2889	-7.3370
H	4.1327	7.4562	-6.7568
H	2.5919	7.2175	-7.1027
H	1.9961	7.2581	-4.9748
O	-4.8737	-3.6342	-2.7501
O	-5.8640	-3.2505	-7.1821
H	3.4915	7.0034	-4.4650
O	1.4445	5.2312	-8.1750
O	3.3481	4.1268	-4.2060
H	3.9150	0.3132	8.0907
H	1.8839	-1.4167	8.0266
H	-6.0629	-7.0991	3.9179
H	-4.9706	-7.9929	3.1635
H	-5.8619	-6.9518	2.3371
C	7.2201	6.5024	4.7647
H	-7.0810	-4.4749	-5.7178
H	-6.7684	-6.5407	-4.5984
H	-5.4482	-7.2910	-5.9682
H	-7.4814	-4.3119	-2.8927
H	-7.8150	-3.0385	-3.8180
H	-9.6614	-4.5714	-3.5539
H	-8.8169	-5.6275	-4.4098
H	-9.2923	-4.2533	-5.0783
C	3.1929	1.3223	5.1869
C	3.9609	1.4325	6.3928
C	3.5565	0.4915	7.2294
C	2.4654	-0.2208	6.5903
C	1.7114	-1.2101	7.1154
C	0.7256	-1.9575	6.5117
C	-0.0279	-3.0503	7.1211
C	-1.9291	-0.6362	-3.0356
C	-0.8896	-3.5141	6.1858
C	-0.7147	-2.7417	4.9915
C	-1.3953	-2.9051	3.7909
C	-1.1388	-2.1394	2.6324
C	-1.7782	-2.4113	1.3169
C	-1.2275	-1.5605	0.4615
C	-0.3066	-0.7363	1.1648
C	0.4475	0.3247	0.5978
C	1.3817	1.1388	1.2708
C	2.0940	2.2299	0.6821
C	2.8516	2.7604	1.6622
C	2.6482	1.9780	2.8493
C	3.3558	2.1548	4.0667
C	3.8159	-1.4053	3.2082
C	4.8640	-2.2745	2.9108
C	4.5774	-3.5925	2.6791
C	3.2614	-4.0062	2.7116
C	2.2738	-3.0636	3.0321
C	-1.8293	0.6250	4.8257
C	-2.7894	1.4358	5.3916
C	-2.4765	2.7004	5.7748
C	-1.1497	3.1208	5.5928
C	-0.2531	2.2433	5.0550
C	4.3400	3.2809	4.1579
C	3.9885	4.4721	4.8121
C	4.9053	5.4831	4.9664
C	6.2266	5.3396	4.5263
C	6.5746	4.1485	3.8996
C	5.6750	3.1341	3.7064
C	2.5934	4.6623	5.3585
C	6.1063	1.8645	3.0317
C	-2.4167	-4.0112	3.7079
C	-2.0976	-5.2608	3.1624
C	-3.0753	-6.2267	3.0318
C	-4.3492	-6.0232	3.4271
C	-4.6639	-4.8437	3.9840
C	-3.7010	-3.8077	4.1096
C	-4.1300	-2.4597	4.7464
C	-0.6421	-5.5177	2.7396
C	0.3153	0.5699	-0.8132
C	0.1735	0.7868	-2.0014
C	0.2652	1.3190	-3.3876
C	1.2842	2.2750	-3.6424
C	1.3852	2.8855	-4.8416
C	2.4679	3.8699	-5.0739
C	1.4933	4.4471	-7.2469
C	0.5712	3.3110	-7.1101
C	0.4736	2.5719	-5.8859
C	-0.2742	2.9673	-8.1410
C	-1.0979	1.9096	-8.0041
C	-1.2564	1.1889	-6.8125
C	-0.4540	1.5426	-5.7028
C	-0.6062	0.8802	-4.4199
C	-1.6556	-0.1007	-4.2687
C	-2.3567	-0.4961	-5.4081
C	-2.1761	0.1045	-6.6838
C	-2.9560	-0.3927	-7.7329
C	-3.8534	-1.4003	-7.6103
C	-4.0938	-1.9092	-6.4018
C	-3.4017	-1.4904	-5.2906
C	-3.6390	-2.1311	-4.0174
H	7.4660	4.0347	3.5939
C	-2.8948	-1.6055	-2.9343
C	-5.1956	-2.9051	-6.2613
C	-4.6646	-3.1370	-3.8720
H	7.2009	6.7589	5.7108
H	6.9644	7.2693	4.2125
C	-5.1478	-6.4003	-5.6906
H	8.1253	6.2127	4.5240
C	3.5670	5.4931	-6.5652
C	4.3295	5.0126	-7.9154
C	5.6531	5.6182	-8.0521
C	3.3134	6.9796	-6.4683
C	2.9425	7.4550	-5.1386
C	-5.4081	-7.1160	3.1908
Ni	0.9870	-0.3797	3.9158
H	4.6435	2.0723	6.5613
H	0.0686	-3.3745	8.0075
H	-1.4603	-0.3396	-2.2638
H	-1.5046	-4.2293	6.3034
H	-2.4455	-3.0609	1.1294
H	-1.4172	-1.5101	-0.4691
H	2.0447	2.5208	-0.2213
H	3.4199	3.5183	1.5807
H	4.0199	-0.4911	3.3697
H	5.7591	-1.9574	2.8692
H	5.2743	-4.2119	2.4991
H	3.0302	-4.9086	2.5213
H	1.3702	-3.3546	3.0764
H	-2.0826	-0.2464	4.5449
H	-3.6731	1.1080	5.5149
H	-3.1308	3.2781	6.1495
H	-0.8820	3.9978	5.8383
H	0.6474	2.5343	4.9629
H	4.6374	6.2959	5.3803
H	2.4581	4.0686	6.1251
H	1.9376	4.4503	4.6607
H	2.4772	5.5940	5.6415
C	-6.6275	-4.4767	-4.8265
C	-6.0158	-5.9031	-4.6832
C	-7.7191	-4.0246	-3.8098
H	7.0515	1.9308	2.7836
C	-8.9808	-4.6736	-4.2495
H	5.5654	1.7222	2.2277
H	5.9825	1.1099	3.6462
H	-2.8442	-7.0643	2.6494
H	-5.5478	-4.7004	4.3025
H	-3.9097	-2.4642	5.7016
H	-5.0960	-2.3385	4.6348
H	-3.6555	-1.7240	4.3056
H	-0.5121	-6.4764	2.5813
H	-0.0383	-5.2202	3.4521
H	-0.4476	-5.0215	1.9178
H	1.9042	2.4898	-2.9569
H	-0.2750	3.4721	-8.9453
H	-1.6041	1.6379	-8.7613
H	-2.8505	0.0052	-8.5887
H	-4.3021	-1.7409	-8.3762
H	3.0884	8.4223	-5.0856
H	-3.0796	-1.9515	-2.0687
H	-5.5199	-5.9274	-3.8260
H	-5.1614	-5.7955	-6.4602
N	2.2813	0.3114	5.3241
N	0.2588	-1.8007	5.2186
H	-4.2364	-6.4590	-5.3354
N	-0.2538	-1.1201	2.4956
N	1.7252	1.0220	2.6043
N	2.5360	-1.7874	3.2789
N	-0.5457	1.0104	4.6485
N	2.4896	4.6072	-6.2798
H	4.2270	5.3123	-5.8375
N	-5.3780	-3.5474	-4.9982
H	4.4240	4.0267	-7.9011
H	3.7805	5.2533	-8.7027
H	5.5752	6.5923	-7.9868
H	6.0348	5.3776	-8.9218
*