! UKS B3LYP ma-def2-SVP OPT NumFreq
%basis
NewGTO I "ma-def2-TZVP" end
NewGTO Sn "ma-def2-TZVP" end
end 

%scf
  maxiter 200
end

%pal 
	nprocs 16
end
* xyz 0 1
F	-3.2474	-6.9667	-1.4920
F	-3.5739	-6.2243	-4.0778
C	2.6924	5.8379	1.9458
F	3.2474	6.9667	1.4920
F	3.5739	6.2243	4.0778
H	4.1160	-2.0927	-2.2411
H	4.3361	-2.7285	0.0855
H	5.4185	-0.6381	-5.6525
H	4.2194	0.1628	-3.8405
H	6.4014	-3.0690	3.3146
H	4.9275	-1.6153	2.2899
I	-6.3933	5.7810	-4.6636
C	4.0148	-1.8870	-6.2938
C	4.5615	-0.9577	-5.4840
C	3.6963	-4.7827	3.7161
C	5.0374	-4.4586	3.7703
C	5.4986	-3.2833	3.2570
C	4.6131	-2.4140	2.6487
Sn	0.0000	0.0000	0.0000
H	1.5296	-1.8864	4.5486
H	-1.5296	1.8864	-4.5486
H	-0.5237	-0.6636	5.0797
H	0.5237	0.6636	-5.0797
I	5.1120	-2.7043	-7.8772
H	-1.1515	2.1434	4.8588
H	1.1515	-2.1434	-4.8588
H	-2.3788	2.9467	6.6630
H	2.3788	-2.9467	-6.6630
H	-1.9054	4.1352	-3.0571
H	1.9054	-4.1352	3.0571
H	-3.3920	5.5795	-4.0868
H	3.3920	-5.5795	4.0868
C	1.2086	-1.3215	2.5312
C	-1.2086	1.3215	-2.5312
C	0.9888	-1.4337	3.9425
C	-0.9888	1.4337	-3.9425
C	-0.1489	-0.7616	4.2343
C	0.1489	0.7616	-4.2343
C	-0.6718	-0.2267	3.0173
C	0.6718	0.2267	-3.0173
C	-1.8385	0.5417	2.8770
C	1.8385	-0.5417	-2.8770
C	-2.3699	1.0381	1.6849
C	2.3699	-1.0381	-1.6849
C	-3.5408	1.8485	1.5526
C	3.5408	-1.8485	-1.5526
C	-3.6631	2.1942	0.2695
C	3.6631	-2.1942	-0.2695
C	-2.5901	1.6094	-0.4682
C	2.5901	-1.6094	0.4682
C	-2.3143	1.8258	-1.8284
C	2.3143	-1.8258	1.8284
C	-2.5784	0.9429	4.1272
C	2.5784	-0.9429	-4.1272
C	-2.0227	1.8474	4.9951
C	2.0227	-1.8474	-4.9951
C	-2.7578	2.3256	6.0835
C	2.7578	-2.3256	-6.0835
C	-3.8401	0.4805	4.3948
C	3.8401	-0.4805	-4.3948
C	-3.2545	2.7166	-2.5644
C	3.2545	-2.7166	2.5644
C	-2.8074	3.9146	-3.1056
C	2.8074	-3.9146	3.1056
C	0.6629	2.9444	0.5246
C	-0.6629	-2.9444	-0.5246
C	1.3999	3.8454	1.4969
C	-1.3999	-3.8454	-1.4969
C	1.9725	5.0411	1.0886
C	-1.9725	-5.0411	-1.0886
C	2.8407	5.4843	3.2404
C	-2.8407	-5.4843	-3.2404
C	2.2446	4.3317	3.6989
C	-2.2446	-4.3317	-3.6989
C	1.5541	3.5372	2.8286
C	-1.5541	-3.5372	-2.8286
H	-4.1160	2.0927	2.2411
H	-4.3361	2.7285	-0.0855
N	0.1682	-0.5984	2.0000
N	-0.1682	0.5984	-2.0000
N	-1.8334	0.8795	0.4193
N	1.8334	-0.8795	-0.4193
O	1.0406	1.7295	0.6077
O	-1.0406	-1.7295	-0.6077
H	-5.4185	0.6381	5.6525
H	-4.2194	-0.1628	3.8405
O	0.1409	-3.4159	0.2326
O	-0.1409	3.4159	-0.2326
F	-1.8698	-5.4389	0.1824
F	1.8698	5.4389	-0.1824
H	-6.4014	3.0690	-3.3146
F	2.3651	3.9837	4.9826
H	-4.9275	1.6153	-2.2899
F	1.0058	2.4095	3.3193
F	-1.0058	-2.4095	-3.3193
F	-2.3651	-3.9837	-4.9826
C	-4.0148	1.8870	6.2938
C	-4.5615	0.9577	5.4840
C	-3.6963	4.7827	-3.7161
C	-5.0374	4.4586	-3.7703
C	-5.4986	3.2833	-3.2570
C	-4.6131	2.4140	-2.6487
I	-5.1120	2.7043	7.8772
I	6.3933	-5.7810	4.6636
C	-2.6924	-5.8379	-1.9458
*