! UKS B3LYP ma-def2-SVP OPT NumFreq
%basis
NewGTO Pd "ma-def2-TZVP" end
end 

%scf
  maxiter 200
end

%pal 
	nprocs 16
end
* xyz 0 1
H	-1.0615	1.1572	-6.3869
P	1.6272	1.6653	-3.5423
H	1.2689	4.9340	-2.7566
H	2.4607	3.9203	-2.4038
H	3.3719	4.2109	-4.5386
H	2.1508	5.1591	-4.9520
H	1.7474	1.5597	-6.1735
H	1.0881	0.1142	-6.3980
H	-0.3302	2.5792	-6.3223
H	-0.1523	1.6457	-7.6100
H	3.2033	5.6451	-3.8488
H	-1.9674	-2.3307	4.4446
H	-4.2406	-1.0805	4.0994
H	-5.1145	0.4982	2.4036
H	-4.6623	2.9807	1.7521
H	-6.7558	3.9480	1.3451
H	-10.8862	3.6587	-1.5346
H	-10.1494	4.9801	-2.0562
H	-10.4726	3.7891	-3.0751
H	-7.0573	1.8513	-2.1058
H	-4.9943	0.8446	-1.6755
H	-3.1635	2.6497	-2.0240
H	-1.0216	2.5142	-3.2466
C	1.8801	4.2527	-3.1336
C	2.7251	4.8708	-4.2119
C	0.9411	1.0105	-6.0037
C	-0.2542	1.6539	-6.6353
O	3.0745	1.5746	-3.7840
O	0.7182	0.8881	-4.5606
O	1.1059	3.1500	-3.6863
H	3.7525	0.2040	-2.2385
H	4.5690	-1.3314	-0.4867
C	-1.5979	-1.9128	3.6756
H	3.6207	-4.3469	0.5417
C	-2.4097	-1.0384	2.9827
H	5.6671	-5.4141	0.8951
C	-3.7684	-0.7382	3.3496
C	-4.2420	0.1241	2.4268
H	9.7727	-5.6943	3.5237
C	-3.1846	0.3715	1.4839
C	-3.2894	1.1667	0.3456
H	6.8040	-2.4175	3.3782
C	-4.6183	1.8145	0.0771
H	4.7607	-1.3403	2.9970
C	-5.1498	2.7438	0.9719
H	2.4570	-3.7412	3.6951
C	-6.3936	3.3256	0.7254
H	0.2550	-3.6687	4.8332
C	-7.1051	2.9989	-0.4236
C	-8.4267	3.6665	-0.6443
C	-10.2125	4.0075	-2.1555
C	-6.5767	2.0773	-1.3183
C	-5.3443	1.4823	-1.0646
C	-2.2630	1.3624	-0.5728
C	-2.3928	2.1631	-1.7557
C	-1.2205	2.0993	-2.4156
N	-2.0687	-0.3504	1.8433
N	-0.9856	0.8323	-0.5149
Pd	-0.2809	-0.4142	0.9004
C	1.0246	1.0061	-1.9646
O	-8.9755	4.3424	0.1748
C	1.8662	0.1923	-1.1958
O	-8.9266	3.4062	-1.8613
C	3.2522	-0.1212	-1.4993
C	3.6975	-0.9570	-0.5443
C	2.6117	-1.1814	0.3754
C	2.6991	-2.0293	1.4658
C	3.9981	-2.7321	1.7168
C	4.2697	-3.9474	1.1097
C	5.4837	-4.5875	1.3249
C	6.4303	-4.0167	2.1698
C	7.7408	-4.7205	2.3026
C	6.1619	-2.8069	2.7967
C	4.9458	-2.1679	2.5686
C	1.6512	-2.2889	2.3461
C	1.7120	-3.2072	3.4474
C	0.5117	-3.1698	4.0666
C	-0.2985	-2.2350	3.3473
H	10.3309	-4.3023	4.0822
H	10.3465	-4.5975	2.5094
C	-0.3215	1.2866	-1.6340
N	1.5039	-0.4621	-0.0390
N	0.4063	-1.7094	2.2874
O	8.0555	-5.6763	1.6366
O	8.5300	-4.1552	3.2225
C	9.8519	-4.7337	3.3444
*