! UKS B3LYP ma-def2-SVP OPT NumFreq
%basis
NewGTO Pt "ma-def2-TZVP" end
end 

%scf
  maxiter 200
end

%pal 
	nprocs 16
end
* xyz 0 1
H	-6.7340	3.9783	1.2631
H	-10.8808	3.6073	-1.6644
H	-10.1764	4.9927	-2.0481
H	-10.4250	3.8817	-3.1739
H	-7.0434	1.8793	-2.1914
P	1.6459	1.7059	-3.6425
H	3.7710	0.2326	-2.3431
H	3.6684	-4.2882	0.4180
H	2.5000	-3.6932	3.6191
C	-6.3700	3.3581	0.6415
C	-7.0852	3.0287	-0.5082
C	-8.4106	3.6929	-0.7249
C	-10.2019	4.0299	-2.2321
H	-5.0821	0.5400	2.3340
C	-6.5600	2.1044	-1.4036
H	-4.6393	3.0320	1.6635
H	-4.9836	0.8616	-1.7567
H	-3.1453	2.6752	-2.1157
H	-1.0073	2.5578	-3.3401
H	1.7753	1.5818	-6.2770
H	1.0911	0.1459	-6.4967
H	-1.0485	1.2184	-6.4960
H	-0.3078	2.6346	-6.4033
H	-0.1323	1.7223	-7.7061
H	1.2841	4.9729	-2.8429
H	2.4778	3.9597	-2.4986
H	3.3852	4.2627	-4.6360
H	2.1607	5.2101	-5.0424
Pt	-0.2524	-0.3726	0.8158
O	-8.9649	4.3538	0.1025
C	1.0430	1.0439	-2.0621
O	-8.9022	3.4481	-1.9442
C	1.8917	0.2337	-1.2939
C	3.2728	-0.0869	-1.5996
C	3.7199	-0.9135	-0.6476
C	2.6449	-1.1397	0.2757
C	2.7260	-1.9861	1.3771
C	4.0371	-2.6854	1.6277
H	3.2148	5.6942	-3.9401
C	4.3110	-3.8952	0.9966
C	1.6878	-2.2452	2.2628
C	1.7537	-3.1597	3.3729
C	-0.2588	-2.1837	3.2791
H	4.5932	-1.2846	-0.5923
H	4.7781	-1.3131	2.9308
C	-2.3753	-0.9970	2.9146
H	6.8291	-2.3912	3.3057
H	10.3507	-4.2904	4.0230
C	-4.2109	0.1645	2.3517
H	9.8204	-5.6561	3.3804
C	-3.1548	0.4049	1.4060
H	10.4056	-4.5023	2.4378
C	-3.2646	1.1998	0.2625
H	5.7139	-5.3498	0.7798
C	-4.5910	1.8475	-0.0066
C	-5.1277	2.7861	0.8870
C	-5.3280	1.5061	-1.1495
C	-2.2447	1.3996	-0.6578
C	-2.3723	2.1933	-1.8466
C	-1.2032	2.1373	-2.5116
C	-0.2980	1.3139	-1.7282
C	0.9616	1.0461	-6.1027
C	-0.2366	1.7135	-6.7315
C	1.8949	4.2945	-3.2250
C	2.7381	4.9203	-4.3045
N	1.5298	-0.4217	-0.1278
N	0.4423	-1.6611	2.2068
N	-2.0355	-0.3119	1.7722
N	-0.9632	0.8671	-0.6054
O	3.0948	1.6151	-3.8866
O	0.7371	0.9318	-4.6589
O	1.1213	3.1932	-3.7829
C	4.9706	-2.1321	2.4896
C	6.1925	-2.7721	2.7138
C	6.4727	-3.9720	2.0640
C	7.7869	-4.6692	2.1987
C	9.8938	-4.6878	3.2535
C	5.5266	-4.5264	1.2170
H	0.3081	-3.6109	4.7718
H	-1.9255	-2.2715	4.3820
H	-4.1883	-1.0562	4.0313
O	8.1077	-5.6155	1.5195
O	8.5627	-4.1126	3.1302
C	0.5596	-3.1168	3.9999
C	-1.5606	-1.8599	3.6079
C	-3.7206	-0.7082	3.2808
*