! UKS B3LYP ma-def2-SVP OPT NumFreq
%basis
NewGTO Ir "ma-def2-TZVP" end
end 

%scf
  maxiter 200
end

%pal 
	nprocs 16
end
* xyz 0 1
P	-1.3952	-0.9197	-0.0212
H	2.9756	-2.0396	3.8442
H	3.7088	-3.2489	1.8227
H	2.7769	-2.7794	-3.3822
H	1.5153	-1.1800	-4.7943
H	4.9266	-2.5386	-1.9224
H	6.2632	-4.4219	-2.3115
H	5.6621	-6.4922	-1.4245
H	0.5957	-2.1297	4.8146
H	3.6988	-6.6994	-0.1815
H	2.3266	-4.8416	0.1698
H	2.1316	1.3854	-5.2166
H	1.9706	1.7418	-7.5154
H	-0.1127	1.6759	-8.5633
H	-2.0385	1.3114	-7.2966
H	-1.8974	1.0087	-4.9861
H	-0.3101	-2.4902	-2.1188
H	0.1454	-4.7448	-2.4942
H	-0.1975	-6.3146	-0.8074
H	-1.1186	-5.6447	1.2253
H	-1.6581	-3.4076	1.5982
H	-2.8942	1.3638	-0.8847
H	-4.5260	1.8037	-2.4809
H	-5.2278	0.1383	-3.9549
H	-4.3049	-2.0113	-3.7874
H	-2.6961	-2.4700	-2.1807
H	-0.8845	-1.5069	2.6883
H	-2.0263	-1.3508	4.7141
H	-4.2007	-0.5033	4.7711
H	-5.2458	0.1558	2.7944
H	-4.1370	-0.0702	0.7497
Ir	0.5739	0.4093	0.0034
C	1.7446	-0.8598	2.5424
C	2.6892	-1.8701	2.9544
C	3.0898	-2.5279	1.8537
C	2.4096	-1.9400	0.7330
C	2.6229	-2.3019	-0.5986
C	2.0952	-1.6346	-1.7102
C	2.2717	-2.0355	-3.0755
C	1.5874	-1.1598	-3.8474
C	0.9884	-0.1939	-2.9676
C	0.2597	0.9293	-3.3926
C	-0.3060	1.8737	-2.5313
C	-0.8331	2.5247	1.7205
C	-0.3932	2.0203	3.8622
C	0.2898	1.1002	2.9846
C	1.1138	0.0469	3.3996
C	4.6666	-3.3834	-1.5757
C	5.4677	-4.5040	-1.7992
C	5.1101	-5.7335	-1.2782
C	3.4885	-3.5018	-0.8469
C	3.9439	-5.8546	-0.5429
C	3.1292	-4.7488	-0.3296
C	0.1352	1.1567	-4.8601
C	1.2779	1.3759	-5.6343
C	1.1862	1.5804	-7.0044
C	-0.0474	1.5495	-7.6239
C	-1.1900	1.3329	-6.8698
C	-1.1074	1.1459	-5.4951
H	-1.1267	3.3547	-3.8637
C	-1.0376	-2.7122	-0.2202
H	-1.8880	4.5426	-1.8359
C	-0.4878	-3.1292	-1.4380
H	-1.6299	3.5996	3.4037
C	-0.2026	-4.4677	-1.6542
C	-0.4190	-5.4026	-0.6618
C	-0.9612	-5.0017	0.5427
C	-1.2766	-3.6700	0.7682
C	-2.6160	-0.5975	-1.3598
C	-3.1783	0.6724	-1.4699
C	-4.1473	0.9347	-2.4241
C	-4.5706	-0.0513	-3.2961
C	-4.0199	-1.3252	-3.1958
C	-3.0613	-1.5943	-2.2418
S	2.5730	1.7433	0.0231
C	-2.3886	-0.8020	1.5053
C	-1.7762	-1.1773	2.7010
C	-2.4502	-1.0777	3.9089
C	-3.7418	-0.5800	3.9423
C	-4.3630	-0.1939	2.7708
C	-3.6963	-0.3177	1.5537
H	-0.8248	5.8703	0.3742
N	1.5819	-0.9271	1.1779
H	-2.2451	7.7011	0.7304
N	1.2772	-0.5253	-1.6704
H	-4.4262	7.3581	1.4565
N	-0.3021	1.8345	-1.1653
H	-5.2067	5.1923	1.8453
N	-0.0048	1.4171	1.6905
H	-3.7956	3.3453	1.4829
H	-0.3616	2.0149	4.8120
H	1.9907	1.6396	5.3855
H	2.2048	1.2024	7.6731
H	1.6502	-0.9015	8.5282
H	0.8773	-2.5844	7.0872
C	-0.9932	3.0763	-2.9657
C	-1.4064	3.7247	-1.8595
C	-0.9849	2.9512	-0.7176
C	-1.2892	3.2417	0.6143
C	-1.0826	2.8853	3.0968
C	-2.1763	4.4269	0.8734
C	-1.7175	5.7264	0.6654
C	-2.5621	6.8187	0.8816
C	-3.8516	6.6142	1.3140
C	-4.3171	5.3282	1.5412
C	-3.4771	4.2264	1.3239
C	1.2762	-0.1980	4.8628
C	1.7539	0.7854	5.7267
C	1.8867	0.5231	7.0903
C	1.5571	-0.7266	7.5987
C	1.0900	-1.7234	6.7446
C	0.9355	-1.4557	5.3914
H	3.2467	1.4688	-0.9303
*