! UKS B3LYP ma-def2-SVP OPT NumFreq
%basis
NewGTO Rh "ma-def2-TZVP" end
end 

%scf
  maxiter 200
end

%pal 
	nprocs 16
end
* xyz 0 1
H	8.9396	-2.2718	-7.0807
C	-3.1659	1.0162	3.5646
C	-2.6223	1.2717	4.8054
C	-3.5322	1.5301	5.8652
H	-3.8850	-6.5179	-2.3980
C	-4.9121	1.5859	5.6647
H	-3.1285	-4.3789	-2.2710
C	-5.3880	1.3363	4.3921
H	-5.6423	-10.1107	-2.5349
C	-4.5069	1.0191	3.3581
H	-6.0487	-9.9326	-0.9972
C	-5.8509	1.8591	6.8444
H	-4.6907	-10.6859	-1.3839
C	0.3405	-3.7504	-2.0940
C	-8.0321	2.2115	7.4464
C	1.3808	-3.0368	-2.6054
C	1.2166	-1.7122	-2.1890
N	-0.0538	1.5566	1.4636
C	2.2141	-0.7078	-2.4488
O	-7.1182	1.9795	6.4005
O	-5.4736	1.9237	7.9820
H	3.7097	1.6359	-3.1553
H	3.3313	3.5684	-1.6876
C	3.1659	-1.0162	-3.5646
C	2.6223	-1.2717	-4.8054
C	3.5322	-1.5301	-5.8652
C	-2.0718	-2.3260	0.4971
H	1.2070	5.1935	-1.1534
C	-1.5600	-3.1249	-0.4922
C	4.9121	-1.5859	-5.6647
H	2.1653	7.3129	-1.1842
C	-0.4779	-2.8370	-1.3308
C	5.3880	-1.3363	-4.3921
C	4.5069	-1.0191	-3.3581
C	5.8509	-1.8591	-6.8444
C	8.0321	-2.2115	-7.4464
C	-2.0966	-4.5698	-0.5462
N	0.0538	-1.5566	-1.4636
C	-1.7990	-5.4538	0.4577
C	-2.3535	-6.7196	0.4673
C	-3.1699	-7.1161	-0.5494
C	-3.3939	-6.2292	-1.6379
C	-2.9090	-4.9927	-1.5788
O	7.1182	-1.9795	-6.4005
C	-3.7801	-8.4641	-0.5111
O	5.4736	-1.9237	-7.9820
C	-5.2964	-9.9590	-1.6258
C	2.3844	0.5580	-1.8147
C	3.1649	1.6593	-2.3767
C	2.9548	2.7049	-1.5701
O	-4.5905	-8.7020	-1.5880
O	-3.5581	-9.3070	0.3495
Rh	-1.1231	0.0772	-1.0296
H	-3.7097	-1.6359	3.1553
H	-3.3313	-3.5684	1.6876
C	-0.5904	0.9633	-2.5783
Rh	1.1231	-0.0772	1.0296
C	-2.3386	1.4743	-0.6624
C	0.5904	-0.9633	2.5783
C	2.3386	-1.4743	0.6624
H	-1.2070	-5.1935	1.1534
H	-2.1653	-7.3129	1.1842
N	1.7701	1.0220	-0.6166
C	-2.3844	-0.5580	1.8147
C	-3.1649	-1.6593	2.3767
C	-2.9548	-2.7049	1.5701
H	3.8850	6.5179	2.3980
H	3.1285	4.3789	2.2710
H	5.6423	10.1107	2.5349
H	6.0487	9.9326	0.9972
H	4.6907	10.6859	1.3839
O	-0.3146	1.4978	-3.5359
O	-3.0912	2.2467	-0.5393
O	0.3146	-1.4978	3.5359
O	3.0912	-2.2467	0.5393
H	-0.1812	4.6797	2.2163
H	-2.0859	3.3761	3.1436
C	2.0718	2.3260	-0.4971
C	1.5600	3.1249	0.4922
C	0.4779	2.8370	1.3308
N	-1.7701	-1.0220	0.6166
H	-1.6826	1.2756	4.9457
H	-3.1894	1.6672	6.7403
H	-6.3207	1.3847	4.2188
H	-4.8505	0.8017	2.5000
C	2.0966	4.5698	0.5462
C	1.7990	5.4538	-0.4577
H	-7.9874	1.4742	8.0898
C	2.3535	6.7196	-0.4673
H	-7.8064	3.0526	7.8975
C	3.1699	7.1161	0.5494
H	-8.9396	2.2718	7.0807
C	3.3939	6.2292	1.6379
C	2.9090	4.9927	1.5788
C	3.7801	8.4641	0.5111
H	0.1812	-4.6797	-2.2163
C	5.2964	9.9590	1.6258
H	2.0859	-3.3761	-3.1436
C	-0.3405	3.7504	2.0940
C	-1.3808	3.0368	2.6054
C	-1.2166	1.7122	2.1890
H	1.6826	-1.2756	-4.9457
C	-2.2141	0.7078	2.4488
H	3.1894	-1.6672	-6.7403
H	6.3207	-1.3847	-4.2188
H	4.8505	-0.8017	-2.5000
H	7.9874	-1.4742	-8.0898
O	4.5905	8.7020	1.5880
H	7.8064	-3.0526	-7.8975
O	3.5581	9.3070	-0.3495
*