! UKS B3LYP ma-def2-SVP OPT NumFreq
%basis

end 

%scf
  maxiter 200
end

%pal 
	nprocs 16
end
* xyz 0 1
H	-3.0474	-2.8307	-3.0546
N	1.0951	-0.1861	-1.7340
H	-1.2319	-0.7112	-5.4458
H	-1.5092	-1.8591	-7.4486
H	2.8152	-2.1768	0.3012
H	-0.7474	-3.3396	0.2639
H	-0.4523	-3.1381	1.7983
H	2.6683	-4.7325	0.1254
H	2.6963	-4.0622	1.5584
H	0.4996	-5.1052	0.2227
H	0.6942	-4.9713	1.7783
C	-1.5718	-1.6023	-2.1078
C	-2.8066	-2.3418	-2.3008
C	-1.0872	-1.6299	-5.4752
C	-1.2553	-2.3209	-6.6819
C	2.0585	-2.7424	0.0797
N	-1.5974	-0.9872	-0.8762
C	-0.0442	-3.2720	0.9287
C	2.2137	-4.1140	0.7190
C	0.7880	-4.5089	0.9305
O	0.8337	-2.1852	0.6161
H	-4.3728	-2.5560	-1.0045
H	-5.6849	-0.4815	0.1565
H	-7.7136	-1.3420	0.8734
H	-3.8006	-2.5723	3.0270
H	-5.8269	-3.4578	3.6978
H	-7.7747	-2.8568	2.6167
C	-2.4006	-0.1946	1.9228
C	-2.7807	-1.3299	-0.2808
C	-4.5160	-1.4447	1.5028
C	-3.5377	-2.1842	-1.1753
C	-5.7071	-1.0783	0.8689
C	-6.9256	-1.5985	1.2947
C	-4.5804	-2.3323	2.5802
C	-5.7965	-2.8582	2.9877
C	-6.9619	-2.4956	2.3432
C	-3.1868	-0.9530	1.0230
H	4.3728	2.5560	1.0045
H	5.6849	0.4815	-0.1565
H	7.7136	1.3420	-0.8734
H	3.8006	2.5723	-3.0270
H	5.8269	3.4578	-3.6978
H	7.7747	2.8568	-2.6167
C	2.4006	0.1946	-1.9228
C	2.7807	1.3299	0.2808
C	4.5160	1.4447	-1.5028
C	3.5377	2.1842	1.1753
C	5.7071	1.0783	-0.8689
C	6.9256	1.5985	-1.2947
C	4.5804	2.3323	-2.5802
C	5.7965	2.8582	-2.9877
C	6.9619	2.4956	-2.3432
C	3.1868	0.9530	-1.0230
Zn	-0.0000	0.0000	0.0000
H	3.0474	2.8307	3.0546
H	1.2319	0.7112	5.4458
H	1.5092	1.8591	7.4486
H	-2.8152	2.1768	-0.3012
H	0.7474	3.3396	-0.2639
H	0.4523	3.1381	-1.7983
H	-2.6683	4.7325	-0.1254
H	-2.6963	4.0622	-1.5584
H	-0.4996	5.1052	-0.2227
H	-0.6942	4.9713	-1.7783
C	1.5718	1.6023	2.1078
C	2.8066	2.3418	2.3008
C	1.0872	1.6299	5.4752
C	1.2553	2.3209	6.6819
C	-2.0585	2.7424	-0.0797
C	0.0442	3.2720	-0.9287
C	-2.2137	4.1140	-0.7190
C	-0.7880	4.5089	-0.9305
O	-0.8337	2.1852	-0.6161
N	1.5974	0.9872	0.8762
H	-3.7301	0.2325	3.5465
H	-1.8675	1.4952	4.5437
H	3.7301	-0.2325	-3.5465
H	1.8675	-1.4952	-4.5437
H	0.5406	5.2727	5.6438
H	0.2681	4.1464	3.6406
H	-0.5406	-5.2727	-5.6438
H	1.1568	4.1243	7.5420
H	-0.2681	-4.1464	-3.6406
H	-1.1568	-4.1243	-7.5420
H	-2.0016	2.8210	0.8852
H	2.0016	-2.8210	-0.8852
C	-0.7381	0.9369	2.8292
C	0.7381	-0.9369	-2.8292
C	-2.8802	0.3436	3.1847
C	0.7076	2.3010	4.3250
C	2.8802	-0.3436	-3.1847
C	-1.8538	1.0385	3.7340
C	-0.7076	-2.3010	-4.3250
C	1.8538	-1.0385	-3.7340
C	0.5115	1.5700	3.0327
C	-0.5115	-1.5700	-3.0327
C	0.6800	4.3542	5.6063
C	0.5137	3.6745	4.4034
C	-0.6800	-4.3542	-5.6063
C	-0.5137	-3.6745	-4.4034
C	1.0477	3.6698	6.7377
C	-1.0477	-3.6698	-6.7377
N	-1.0951	0.1861	1.7340
*