! UKS B3LYP ma-def2-SVP OPT NumFreq
%basis
NewGTO Re "ma-def2-TZVP" end
end 

%scf
  maxiter 200
end

%pal 
	nprocs 16
end
* xyz 0 1
Re	-0.1416	0.0362	0.9398
H	4.0600	-3.1470	-0.3004
H	-0.9113	-4.8999	-1.2843
H	-3.1478	-3.8910	-0.9276
H	-5.0954	0.8794	-0.1834
H	-4.1188	3.1647	-0.0864
H	2.9510	3.9191	-1.3726
H	1.0860	-1.1930	-3.0382
H	0.2390	-0.3942	-2.0118
H	1.4135	0.2981	-2.7537
H	0.7401	4.9324	-0.8467
H	2.9496	-4.5182	-2.4918
H	3.7582	-6.7119	-2.3876
H	3.0549	-8.1437	-0.7068
H	1.5046	-7.4249	0.8521
H	0.6661	-5.2460	0.7741
H	5.0480	-0.8764	-0.3186
H	-4.9487	-1.5376	-2.2278
H	-7.1668	-2.3068	-2.1407
H	-8.0537	-3.0967	-0.1692
H	-6.8080	-2.9976	1.7784
H	-4.6227	-2.1737	1.7358
H	-2.6610	4.5182	-1.8532
H	-3.4084	6.7252	-1.8710
H	-2.8446	8.1408	-0.0862
H	-1.6701	7.3124	1.6955
H	-0.9526	5.0907	1.7304
C	3.1517	-0.1871	-0.9852
C	4.1568	-1.1042	-0.5582
C	3.6144	-2.3453	-0.5437
C	2.2534	-2.2432	-0.9617
C	1.2654	-3.2343	-0.8856
C	-0.1183	-2.9680	-0.7776
C	-1.0992	-4.0020	-1.0362
C	-2.3093	-3.4532	-0.8369
C	-2.1057	-2.0864	-0.4835
C	-3.1877	-1.2152	-0.2565
C	-3.0895	0.1708	-0.1000
H	4.4287	2.8526	0.7710
C	-4.1714	1.0939	-0.1344
H	6.4603	3.9739	0.5622
C	-3.6418	2.3423	-0.0857
H	7.7971	3.6529	-1.2892
C	-2.2082	2.1707	-0.0157
H	7.0952	2.2269	-3.0083
C	-1.2416	3.1869	-0.0974
H	5.0651	1.0879	-2.7943
C	0.1109	2.9399	-0.3588
C	0.9736	4.0138	-0.7746
C	2.1780	3.4621	-1.0639
C	2.0669	2.0539	-0.8021
C	3.1859	1.2063	-0.9337
C	1.1102	-0.5170	-2.3694
C	1.7438	-4.6410	-0.8619
C	2.6535	-5.1010	-1.8021
C	3.1347	-6.4086	-1.7390
C	2.7118	-7.2592	-0.7509
C	1.7979	-6.8287	0.1755
C	1.3010	-5.5344	0.1310
C	-4.5800	-1.7817	-0.2390
C	-5.3345	-1.8172	-1.4058
C	-6.6329	-2.3113	-1.3537
C	-7.1725	-2.7432	-0.1877
C	-6.4279	-2.6958	0.9608
C	-5.1352	-2.2062	0.9365
C	-1.7214	4.5922	-0.0688
C	-2.4517	5.0907	-1.1256
C	-2.9015	6.3953	-1.1375
C	-2.5670	7.2325	-0.0755
C	-1.8680	6.7459	0.9590
C	-1.4437	5.4250	0.9892
C	-1.1106	-0.9844	2.1903
C	-0.0059	1.3601	2.2825
C	1.4747	-0.6901	1.6822
N	2.0293	-0.9258	-1.3081
N	-0.7558	-1.7885	-0.4395
N	-1.9090	0.8409	0.0176
N	0.7935	1.7386	-0.3810
O	-1.7171	-1.5480	3.0003
O	0.0297	2.1204	3.1471
O	2.4129	-1.1249	2.2034
C	4.5270	1.8556	-1.0030
C	4.9626	2.7254	-0.0030
C	6.1770	3.3763	-0.1218
C	6.9628	3.2017	-1.2237
C	6.5528	2.3497	-2.2384
C	5.3427	1.6811	-2.1058
*